/home/local/ASUAD/quoclon1/publish_ccf/benchmarks/simple_loop
30
Simulation for CGRA for 8 x 8 with 8 registers per PE
CPU frequency @ 2GHz
CGRA frequency @ 0.7GHz
CGRA8x8R8torus
Global frequency set at 1000000000000 ticks per second
warn: DRAM device capacity (8192 Mbytes) does not match the address range assigned (512 Mbytes)
0: system.remote_gdb: listening for remote gdb on port 7000
gem5 Simulator System.  http://gem5.org
gem5 is copyrighted software; use the --copyright option for details.

gem5 version 20.1.0.4
gem5 compiled Aug 20 2021 18:45:51
gem5 started Aug 22 2021 22:21:13
gem5 executing on en4181851l, pid 2933763
command line: /home/local/ASUAD/quoclon1/publish_ccf/gem5/build/ARM/gem5.opt --debug-flags=CGRA_Detailed,CGRA_Execute /home/local/ASUAD/quoclon1/publish_ccf/gem5/configs/example/se.py -n 1 --cpu-type CGRA8x8R8torus -c ./loop -o 30

**** REAL SIMULATION ****
warn: membus.slave is deprecated. `slave` is now called `cpu_side_ports`
warn: membus.slave is deprecated. `slave` is now called `cpu_side_ports`
warn: membus.slave is deprecated. `slave` is now called `cpu_side_ports`
warn: membus.slave is deprecated. `slave` is now called `cpu_side_ports`
warn: membus.slave is deprecated. `slave` is now called `cpu_side_ports`
warn: membus.master is deprecated. `master` is now called `mem_side_ports`
warn: No dot file generated. Please install pydot to generate the dot file and pdf.
info: Entering event queue @ 0.  Starting simulation...
info: Increasing stack size by one page.
warn: ignoring syscall mprotect(...)
createCGRA
checkTotalLoops
from cgra.c Initialize Parameters

**********EPISIZE 192*********

**********PROSIZE 2112*********

**********KERNSIZE 192*********

******SIZE OF UNSIGNED LONG4*****

******SIZE OF UNSIGNED LONG LONG8*****

*******************before while loop**************

************XDIM and YDim are 8, 8
Loop Count: -2
From FILE: PROLOGPC= a4c70, EPILOGPC=a4668,  KernelPC=a8e78
Main thread calling CGRA thread...


accelerateOnCGRA
configureCGRA

loopno = 1
Core will execute loop 1 on CGRA


runOnCGRA
41524500: system.cpu: CGRA PARAMETERS: PROLOG= 33, EPILOG=3, II=3, KernelCounter=28
41524500: system.cpu: CGRA PARAMETERS: PROLOGPC= a4c70, EPILOGPC=a4668,  KernelPC=a8e78
41525000: system.cpu: Inside CGRA Execution else statement.
41525000: system.cpu: Inside CGRA_Execution block.
41525000: system.cpu: 
CALL IN NOW CGRA_Execution.
41525000: system.cpu: 

 ~~~~~~ CGRA_Execution @ numCycles = 1 ~~~~~~~
41525000: global: 
******** DB INPUT2 ReadAddress = 0************
41525000: global: 
******** DB INPUT2 ReadAddress = 0************
41525000: global: 
******** DB INPUT2 ReadAddress = 0************
41525000: global: 
******** DB INPUT2 ReadAddress = 0************
41525000: global: 
******** DB INPUT2 ReadAddress = 0************
41525000: global: 
******** DB INPUT2 ReadAddress = 0************
41525000: global: 
******** DB INPUT2 ReadAddress = 0************
41525000: global: 
******** DB INPUT2 ReadAddress = 0************
41525000: global: 
******** DB INPUT2 ReadAddress = 0************
41525000: global: 
******** DB INPUT2 ReadAddress = 0************
41525000: global: 
******** DB INPUT2 ReadAddress = 0************
41525000: global: 
******** DB INPUT2 ReadAddress = 0************
41525000: global: 
******** DB INPUT2 ReadAddress = 0************
41525000: global: 
******** DB INPUT2 ReadAddress = 0************
41525000: global: 
******** DB INPUT2 ReadAddress = 0************
41525000: global: 
******** DB INPUT2 ReadAddress = 0************
41525000: global: 
******** DB INPUT2 ReadAddress = 0************
41525000: global: 
******** DB INPUT2 ReadAddress = 0************
41525000: global: 
******** DB INPUT2 ReadAddress = 0************
41525000: global: 
******** DB INPUT2 ReadAddress = 0************
41525000: global: 
******** DB INPUT2 ReadAddress = 0************
41525000: global: 
******** DB INPUT2 ReadAddress = 0************
41525000: global: 
******** DB INPUT2 ReadAddress = 0************
41525000: global: 
******** DB INPUT2 ReadAddress = 0************
41525000: global: 
******** DB INPUT2 ReadAddress = 0************
41525000: global: 
******** DB INPUT2 ReadAddress = 0************
41525000: global: 
******** DB INPUT2 ReadAddress = 0************
41525000: global: 
******** DB INPUT2 ReadAddress = 0************
41525000: global: 
******** DB INPUT2 ReadAddress = 0************
41525000: global: 
******** DB INPUT2 ReadAddress = 0************
41525000: global: 
******** DB INPUT2 ReadAddress = 0************
41525000: global: 
******** DB INPUT2 ReadAddress = 0************
41525000: global: 
******** DB INPUT2 ReadAddress = 0************
41525000: global: 
******** DB INPUT2 ReadAddress = 0************
41525000: global: 
******** DB INPUT2 ReadAddress = 0************
41525000: global: 
******** DB INPUT2 ReadAddress = 0************
41525000: global: 
******** DB INPUT2 ReadAddress = 0************
41525000: global: 
******** DB INPUT2 ReadAddress = 0************
41525000: global: 
******** DB INPUT2 ReadAddress = 0************
41525000: global: 
******** DB INPUT2 ReadAddress = 0************
41525000: global: 
******** DB INPUT2 ReadAddress = 0************
41525000: global: 
******** DB INPUT2 ReadAddress = 0************
41525000: global: 
******** DB INPUT2 ReadAddress = 0************
41525000: global: 
******** DB INPUT2 ReadAddress = 0************
41525000: global: 
******** DB INPUT2 ReadAddress = 0************
41525000: global: 
******** DB INPUT2 ReadAddress = 0************
41525000: global: 
******** DB INPUT2 ReadAddress = 0************
41525000: global: 
******** DB INPUT2 ReadAddress = 0************
41525000: global: 
******** DB INPUT2 ReadAddress = 0************
41525000: global: 
******** DB INPUT2 ReadAddress = 0************
41525000: global: 
******** DB INPUT2 ReadAddress = 0************
41525000: global: 
******** DB INPUT2 ReadAddress = 0************
41525000: global: 
******** DB INPUT2 ReadAddress = 0************
41525000: global: 
******** DB INPUT2 ReadAddress = 0************
41525000: global: 
******** DB INPUT2 ReadAddress = 0************
41525000: global: 
******** DB INPUT2 ReadAddress = 0************
41525000: global: 
******** DB INPUT2 ReadAddress = 0************
41525000: global: 
******** DB INPUT2 ReadAddress = 0************
41525000: global: 
******** DB INPUT2 ReadAddress = 0************
41525000: global: 
******** DB INPUT2 ReadAddress = 0************
41525000: global: 
******** DB INPUT2 ReadAddress = 0************
41525000: global: 
******** DB INPUT2 ReadAddress = 0************
41525000: global: 
******** DB INPUT2 ReadAddress = 0************
41525000: global: 
******** DB INPUT2 ReadAddress = 0************
41525000: system.cpu: Ins: 4529864705, 10e004001 @ PE 0
41525000: global: Predictor bit: 1	 Opcode: 0
41525000: global: 
Input1 = 1	Input2 = 0
41525000: global: 
******** Setting Configuration as 1************
41525000: global: 
************** WE *****************
41525000: global: Distance is: 0
41525000: system.cpu: Ins: 4529864705, 10e004001 @ PE 1
41525000: global: Predictor bit: 1	 Opcode: 0
41525000: global: 
Input1 = 1	Input2 = 0
41525000: global: 
******** Setting Configuration as 1************
41525000: global: 
************** WE *****************
41525000: global: Distance is: 0
41525000: system.cpu: Ins: 4529864704, 10e004000 @ PE 2
41525000: global: Predictor bit: 1	 Opcode: 0
41525000: global: 
Input1 = 0	Input2 = 0
41525000: global: 
******** Setting Configuration as 0************
41525000: global: 
************** WE *****************
41525000: global: Distance is: 0
41525000: system.cpu: Ins: 4529864704, 10e004000 @ PE 3
41525000: global: Predictor bit: 1	 Opcode: 0
41525000: global: 
Input1 = 0	Input2 = 0
41525000: global: 
******** Setting Configuration as 0************
41525000: global: 
************** WE *****************
41525000: global: Distance is: 0
41525000: system.cpu: Ins: 4529864704, 10e004000 @ PE 4
41525000: global: Predictor bit: 1	 Opcode: 0
41525000: global: 
Input1 = 0	Input2 = 0
41525000: global: 
******** Setting Configuration as 0************
41525000: global: 
************** WE *****************
41525000: global: Distance is: 0
41525000: system.cpu: Ins: 4529864704, 10e004000 @ PE 5
41525000: global: Predictor bit: 1	 Opcode: 0
41525000: global: 
Input1 = 0	Input2 = 0
41525000: global: 
******** Setting Configuration as 0************
41525000: global: 
************** WE *****************
41525000: global: Distance is: 0
41525000: system.cpu: Ins: 4529864704, 10e004000 @ PE 6
41525000: global: Predictor bit: 1	 Opcode: 0
41525000: global: 
Input1 = 0	Input2 = 0
41525000: global: 
******** Setting Configuration as 0************
41525000: global: 
************** WE *****************
41525000: global: Distance is: 0
41525000: system.cpu: Ins: 4529864704, 10e004000 @ PE 7
41525000: global: Predictor bit: 1	 Opcode: 0
41525000: global: 
Input1 = 0	Input2 = 0
41525000: global: 
******** Setting Configuration as 0************
41525000: global: 
************** WE *****************
41525000: global: Distance is: 0
41525000: system.cpu: Ins: 4529864704, 10e004000 @ PE 8
41525000: global: Predictor bit: 1	 Opcode: 0
41525000: global: 
Input1 = 0	Input2 = 0
41525000: global: 
******** Setting Configuration as 0************
41525000: global: 
************** WE *****************
41525000: global: Distance is: 0
41525000: system.cpu: Ins: 4529864704, 10e004000 @ PE 9
41525000: global: Predictor bit: 1	 Opcode: 0
41525000: global: 
Input1 = 0	Input2 = 0
41525000: global: 
******** Setting Configuration as 0************
41525000: global: 
************** WE *****************
41525000: global: Distance is: 0
41525000: system.cpu: Ins: 4529864704, 10e004000 @ PE 10
41525000: global: Predictor bit: 1	 Opcode: 0
41525000: global: 
Input1 = 0	Input2 = 0
41525000: global: 
******** Setting Configuration as 0************
41525000: global: 
************** WE *****************
41525000: global: Distance is: 0
41525000: system.cpu: Ins: 4529864704, 10e004000 @ PE 11
41525000: global: Predictor bit: 1	 Opcode: 0
41525000: global: 
Input1 = 0	Input2 = 0
41525000: global: 
******** Setting Configuration as 0************
41525000: global: 
************** WE *****************
41525000: global: Distance is: 0
41525000: system.cpu: Ins: 4529864704, 10e004000 @ PE 12
41525000: global: Predictor bit: 1	 Opcode: 0
41525000: global: 
Input1 = 0	Input2 = 0
41525000: global: 
******** Setting Configuration as 0************
41525000: global: 
************** WE *****************
41525000: global: Distance is: 0
41525000: system.cpu: Ins: 4529864704, 10e004000 @ PE 13
41525000: global: Predictor bit: 1	 Opcode: 0
41525000: global: 
Input1 = 0	Input2 = 0
41525000: global: 
******** Setting Configuration as 0************
41525000: global: 
************** WE *****************
41525000: global: Distance is: 0
41525000: system.cpu: Ins: 4529864704, 10e004000 @ PE 14
41525000: global: Predictor bit: 1	 Opcode: 0
41525000: global: 
Input1 = 0	Input2 = 0
41525000: global: 
******** Setting Configuration as 0************
41525000: global: 
************** WE *****************
41525000: global: Distance is: 0
41525000: system.cpu: Ins: 4529864704, 10e004000 @ PE 15
41525000: global: Predictor bit: 1	 Opcode: 0
41525000: global: 
Input1 = 0	Input2 = 0
41525000: global: 
******** Setting Configuration as 0************
41525000: global: 
************** WE *****************
41525000: global: Distance is: 0
41525000: system.cpu: Ins: 4529864704, 10e004000 @ PE 16
41525000: global: Predictor bit: 1	 Opcode: 0
41525000: global: 
Input1 = 0	Input2 = 0
41525000: global: 
******** Setting Configuration as 0************
41525000: global: 
************** WE *****************
41525000: global: Distance is: 0
41525000: system.cpu: Ins: 4529864704, 10e004000 @ PE 17
41525000: global: Predictor bit: 1	 Opcode: 0
41525000: global: 
Input1 = 0	Input2 = 0
41525000: global: 
******** Setting Configuration as 0************
41525000: global: 
************** WE *****************
41525000: global: Distance is: 0
41525000: system.cpu: Ins: 4529864704, 10e004000 @ PE 18
41525000: global: Predictor bit: 1	 Opcode: 0
41525000: global: 
Input1 = 0	Input2 = 0
41525000: global: 
******** Setting Configuration as 0************
41525000: global: 
************** WE *****************
41525000: global: Distance is: 0
41525000: system.cpu: Ins: 4529864704, 10e004000 @ PE 19
41525000: global: Predictor bit: 1	 Opcode: 0
41525000: global: 
Input1 = 0	Input2 = 0
41525000: global: 
******** Setting Configuration as 0************
41525000: global: 
************** WE *****************
41525000: global: Distance is: 0
41525000: system.cpu: Ins: 4529864704, 10e004000 @ PE 20
41525000: global: Predictor bit: 1	 Opcode: 0
41525000: global: 
Input1 = 0	Input2 = 0
41525000: global: 
******** Setting Configuration as 0************
41525000: global: 
************** WE *****************
41525000: global: Distance is: 0
41525000: system.cpu: Ins: 4529864704, 10e004000 @ PE 21
41525000: global: Predictor bit: 1	 Opcode: 0
41525000: global: 
Input1 = 0	Input2 = 0
41525000: global: 
******** Setting Configuration as 0************
41525000: global: 
************** WE *****************
41525000: global: Distance is: 0
41525000: system.cpu: Ins: 4529864704, 10e004000 @ PE 22
41525000: global: Predictor bit: 1	 Opcode: 0
41525000: global: 
Input1 = 0	Input2 = 0
41525000: global: 
******** Setting Configuration as 0************
41525000: global: 
************** WE *****************
41525000: global: Distance is: 0
41525000: system.cpu: Ins: 4529864704, 10e004000 @ PE 23
41525000: global: Predictor bit: 1	 Opcode: 0
41525000: global: 
Input1 = 0	Input2 = 0
41525000: global: 
******** Setting Configuration as 0************
41525000: global: 
************** WE *****************
41525000: global: Distance is: 0
41525000: system.cpu: Ins: 4529864704, 10e004000 @ PE 24
41525000: global: Predictor bit: 1	 Opcode: 0
41525000: global: 
Input1 = 0	Input2 = 0
41525000: global: 
******** Setting Configuration as 0************
41525000: global: 
************** WE *****************
41525000: global: Distance is: 0
41525000: system.cpu: Ins: 4529864704, 10e004000 @ PE 25
41525000: global: Predictor bit: 1	 Opcode: 0
41525000: global: 
Input1 = 0	Input2 = 0
41525000: global: 
******** Setting Configuration as 0************
41525000: global: 
************** WE *****************
41525000: global: Distance is: 0
41525000: system.cpu: Ins: 4529864704, 10e004000 @ PE 26
41525000: global: Predictor bit: 1	 Opcode: 0
41525000: global: 
Input1 = 0	Input2 = 0
41525000: global: 
******** Setting Configuration as 0************
41525000: global: 
************** WE *****************
41525000: global: Distance is: 0
41525000: system.cpu: Ins: 4529864704, 10e004000 @ PE 27
41525000: global: Predictor bit: 1	 Opcode: 0
41525000: global: 
Input1 = 0	Input2 = 0
41525000: global: 
******** Setting Configuration as 0************
41525000: global: 
************** WE *****************
41525000: global: Distance is: 0
41525000: system.cpu: Ins: 4529864704, 10e004000 @ PE 28
41525000: global: Predictor bit: 1	 Opcode: 0
41525000: global: 
Input1 = 0	Input2 = 0
41525000: global: 
******** Setting Configuration as 0************
41525000: global: 
************** WE *****************
41525000: global: Distance is: 0
41525000: system.cpu: Ins: 4529864704, 10e004000 @ PE 29
41525000: global: Predictor bit: 1	 Opcode: 0
41525000: global: 
Input1 = 0	Input2 = 0
41525000: global: 
******** Setting Configuration as 0************
41525000: global: 
************** WE *****************
41525000: global: Distance is: 0
41525000: system.cpu: Ins: 4529864704, 10e004000 @ PE 30
41525000: global: Predictor bit: 1	 Opcode: 0
41525000: global: 
Input1 = 0	Input2 = 0
41525000: global: 
******** Setting Configuration as 0************
41525000: global: 
************** WE *****************
41525000: global: Distance is: 0
41525000: system.cpu: Ins: 4529864704, 10e004000 @ PE 31
41525000: global: Predictor bit: 1	 Opcode: 0
41525000: global: 
Input1 = 0	Input2 = 0
41525000: global: 
******** Setting Configuration as 0************
41525000: global: 
************** WE *****************
41525000: global: Distance is: 0
41525000: system.cpu: Ins: 4529864704, 10e004000 @ PE 32
41525000: global: Predictor bit: 1	 Opcode: 0
41525000: global: 
Input1 = 0	Input2 = 0
41525000: global: 
******** Setting Configuration as 0************
41525000: global: 
************** WE *****************
41525000: global: Distance is: 0
41525000: system.cpu: Ins: 4529864704, 10e004000 @ PE 33
41525000: global: Predictor bit: 1	 Opcode: 0
41525000: global: 
Input1 = 0	Input2 = 0
41525000: global: 
******** Setting Configuration as 0************
41525000: global: 
************** WE *****************
41525000: global: Distance is: 0
41525000: system.cpu: Ins: 4529864704, 10e004000 @ PE 34
41525000: global: Predictor bit: 1	 Opcode: 0
41525000: global: 
Input1 = 0	Input2 = 0
41525000: global: 
******** Setting Configuration as 0************
41525000: global: 
************** WE *****************
41525000: global: Distance is: 0
41525000: system.cpu: Ins: 4529864704, 10e004000 @ PE 35
41525000: global: Predictor bit: 1	 Opcode: 0
41525000: global: 
Input1 = 0	Input2 = 0
41525000: global: 
******** Setting Configuration as 0************
41525000: global: 
************** WE *****************
41525000: global: Distance is: 0
41525000: system.cpu: Ins: 4529864704, 10e004000 @ PE 36
41525000: global: Predictor bit: 1	 Opcode: 0
41525000: global: 
Input1 = 0	Input2 = 0
41525000: global: 
******** Setting Configuration as 0************
41525000: global: 
************** WE *****************
41525000: global: Distance is: 0
41525000: system.cpu: Ins: 4529864704, 10e004000 @ PE 37
41525000: global: Predictor bit: 1	 Opcode: 0
41525000: global: 
Input1 = 0	Input2 = 0
41525000: global: 
******** Setting Configuration as 0************
41525000: global: 
************** WE *****************
41525000: global: Distance is: 0
41525000: system.cpu: Ins: 4529864704, 10e004000 @ PE 38
41525000: global: Predictor bit: 1	 Opcode: 0
41525000: global: 
Input1 = 0	Input2 = 0
41525000: global: 
******** Setting Configuration as 0************
41525000: global: 
************** WE *****************
41525000: global: Distance is: 0
41525000: system.cpu: Ins: 4529864704, 10e004000 @ PE 39
41525000: global: Predictor bit: 1	 Opcode: 0
41525000: global: 
Input1 = 0	Input2 = 0
41525000: global: 
******** Setting Configuration as 0************
41525000: global: 
************** WE *****************
41525000: global: Distance is: 0
41525000: system.cpu: Ins: 4529864704, 10e004000 @ PE 40
41525000: global: Predictor bit: 1	 Opcode: 0
41525000: global: 
Input1 = 0	Input2 = 0
41525000: global: 
******** Setting Configuration as 0************
41525000: global: 
************** WE *****************
41525000: global: Distance is: 0
41525000: system.cpu: Ins: 4529864704, 10e004000 @ PE 41
41525000: global: Predictor bit: 1	 Opcode: 0
41525000: global: 
Input1 = 0	Input2 = 0
41525000: global: 
******** Setting Configuration as 0************
41525000: global: 
************** WE *****************
41525000: global: Distance is: 0
41525000: system.cpu: Ins: 4529864704, 10e004000 @ PE 42
41525000: global: Predictor bit: 1	 Opcode: 0
41525000: global: 
Input1 = 0	Input2 = 0
41525000: global: 
******** Setting Configuration as 0************
41525000: global: 
************** WE *****************
41525000: global: Distance is: 0
41525000: system.cpu: Ins: 4529864704, 10e004000 @ PE 43
41525000: global: Predictor bit: 1	 Opcode: 0
41525000: global: 
Input1 = 0	Input2 = 0
41525000: global: 
******** Setting Configuration as 0************
41525000: global: 
************** WE *****************
41525000: global: Distance is: 0
41525000: system.cpu: Ins: 4529864704, 10e004000 @ PE 44
41525000: global: Predictor bit: 1	 Opcode: 0
41525000: global: 
Input1 = 0	Input2 = 0
41525000: global: 
******** Setting Configuration as 0************
41525000: global: 
************** WE *****************
41525000: global: Distance is: 0
41525000: system.cpu: Ins: 4529864704, 10e004000 @ PE 45
41525000: global: Predictor bit: 1	 Opcode: 0
41525000: global: 
Input1 = 0	Input2 = 0
41525000: global: 
******** Setting Configuration as 0************
41525000: global: 
************** WE *****************
41525000: global: Distance is: 0
41525000: system.cpu: Ins: 4529864704, 10e004000 @ PE 46
41525000: global: Predictor bit: 1	 Opcode: 0
41525000: global: 
Input1 = 0	Input2 = 0
41525000: global: 
******** Setting Configuration as 0************
41525000: global: 
************** WE *****************
41525000: global: Distance is: 0
41525000: system.cpu: Ins: 4529864704, 10e004000 @ PE 47
41525000: global: Predictor bit: 1	 Opcode: 0
41525000: global: 
Input1 = 0	Input2 = 0
41525000: global: 
******** Setting Configuration as 0************
41525000: global: 
************** WE *****************
41525000: global: Distance is: 0
41525000: system.cpu: Ins: 4529864704, 10e004000 @ PE 48
41525000: global: Predictor bit: 1	 Opcode: 0
41525000: global: 
Input1 = 0	Input2 = 0
41525000: global: 
******** Setting Configuration as 0************
41525000: global: 
************** WE *****************
41525000: global: Distance is: 0
41525000: system.cpu: Ins: 4529864704, 10e004000 @ PE 49
41525000: global: Predictor bit: 1	 Opcode: 0
41525000: global: 
Input1 = 0	Input2 = 0
41525000: global: 
******** Setting Configuration as 0************
41525000: global: 
************** WE *****************
41525000: global: Distance is: 0
41525000: system.cpu: Ins: 4529864704, 10e004000 @ PE 50
41525000: global: Predictor bit: 1	 Opcode: 0
41525000: global: 
Input1 = 0	Input2 = 0
41525000: global: 
******** Setting Configuration as 0************
41525000: global: 
************** WE *****************
41525000: global: Distance is: 0
41525000: system.cpu: Ins: 4529864704, 10e004000 @ PE 51
41525000: global: Predictor bit: 1	 Opcode: 0
41525000: global: 
Input1 = 0	Input2 = 0
41525000: global: 
******** Setting Configuration as 0************
41525000: global: 
************** WE *****************
41525000: global: Distance is: 0
41525000: system.cpu: Ins: 4529864704, 10e004000 @ PE 52
41525000: global: Predictor bit: 1	 Opcode: 0
41525000: global: 
Input1 = 0	Input2 = 0
41525000: global: 
******** Setting Configuration as 0************
41525000: global: 
************** WE *****************
41525000: global: Distance is: 0
41525000: system.cpu: Ins: 4529864704, 10e004000 @ PE 53
41525000: global: Predictor bit: 1	 Opcode: 0
41525000: global: 
Input1 = 0	Input2 = 0
41525000: global: 
******** Setting Configuration as 0************
41525000: global: 
************** WE *****************
41525000: global: Distance is: 0
41525000: system.cpu: Ins: 4529864704, 10e004000 @ PE 54
41525000: global: Predictor bit: 1	 Opcode: 0
41525000: global: 
Input1 = 0	Input2 = 0
41525000: global: 
******** Setting Configuration as 0************
41525000: global: 
************** WE *****************
41525000: global: Distance is: 0
41525000: system.cpu: Ins: 4529864704, 10e004000 @ PE 55
41525000: global: Predictor bit: 1	 Opcode: 0
41525000: global: 
Input1 = 0	Input2 = 0
41525000: global: 
******** Setting Configuration as 0************
41525000: global: 
************** WE *****************
41525000: global: Distance is: 0
41525000: system.cpu: Ins: 4529864704, 10e004000 @ PE 56
41525000: global: Predictor bit: 1	 Opcode: 0
41525000: global: 
Input1 = 0	Input2 = 0
41525000: global: 
******** Setting Configuration as 0************
41525000: global: 
************** WE *****************
41525000: global: Distance is: 0
41525000: system.cpu: Ins: 4529864704, 10e004000 @ PE 57
41525000: global: Predictor bit: 1	 Opcode: 0
41525000: global: 
Input1 = 0	Input2 = 0
41525000: global: 
******** Setting Configuration as 0************
41525000: global: 
************** WE *****************
41525000: global: Distance is: 0
41525000: system.cpu: Ins: 4529864704, 10e004000 @ PE 58
41525000: global: Predictor bit: 1	 Opcode: 0
41525000: global: 
Input1 = 0	Input2 = 0
41525000: global: 
******** Setting Configuration as 0************
41525000: global: 
************** WE *****************
41525000: global: Distance is: 0
41525000: system.cpu: Ins: 4529864704, 10e004000 @ PE 59
41525000: global: Predictor bit: 1	 Opcode: 0
41525000: global: 
Input1 = 0	Input2 = 0
41525000: global: 
******** Setting Configuration as 0************
41525000: global: 
************** WE *****************
41525000: global: Distance is: 0
41525000: system.cpu: Ins: 4529864704, 10e004000 @ PE 60
41525000: global: Predictor bit: 1	 Opcode: 0
41525000: global: 
Input1 = 0	Input2 = 0
41525000: global: 
******** Setting Configuration as 0************
41525000: global: 
************** WE *****************
41525000: global: Distance is: 0
41525000: system.cpu: Ins: 4529864704, 10e004000 @ PE 61
41525000: global: Predictor bit: 1	 Opcode: 0
41525000: global: 
Input1 = 0	Input2 = 0
41525000: global: 
******** Setting Configuration as 0************
41525000: global: 
************** WE *****************
41525000: global: Distance is: 0
41525000: system.cpu: Ins: 4529864704, 10e004000 @ PE 62
41525000: global: Predictor bit: 1	 Opcode: 0
41525000: global: 
Input1 = 0	Input2 = 0
41525000: global: 
******** Setting Configuration as 0************
41525000: global: 
************** WE *****************
41525000: global: Distance is: 0
41525000: system.cpu: Ins: 4529864704, 10e004000 @ PE 63
41525000: global: Predictor bit: 1	 Opcode: 0
41525000: global: 
Input1 = 0	Input2 = 0
41525000: global: 
******** Setting Configuration as 0************
41525000: global: 
************** WE *****************
41525000: global: Distance is: 0
41525000: system.cpu: CGRA advanceTime complete.
41525000: system.cpu: *******IN ADVANCE PC******
41525000: system.cpu: build/ARM/cpu/atomiccgra/atomiccgra.cc,CGRA_advancePC,1759,PC:a4c70
41525000: system.cpu: Passed Complete Drain().
41525000: system.cpu: Make latency status=1.
41525000: system.cpu: Inside status idle.
41525000: system.cpu: Exiting schedule events
41525000: system.cpu: We are here after Execution
41525500: system.cpu: Inside CGRA Execution else statement.
41525500: system.cpu: Inside CGRA_Execution block.
41525500: system.cpu: 
CALL IN NOW CGRA_Execution.
41525500: system.cpu: 

 ~~~~~~ CGRA_Execution @ numCycles = 3 ~~~~~~~
41525500: global: 
******** DB INPUT2 ReadAddress = 0************
41525500: global: 
READ: REG NUMBER: 0 dist: 0
41525500: global: Rotating REGS data: 0	REG: 0
41525500: global: 
******** DB INPUT2 ReadAddress = 0************
41525500: global: 
******** DB INPUT1 ReadAddress = 0************
41525500: global: 
******** DB INPUT2 ReadAddress = 0************
41525500: global: 
******** DB INPUT1 ReadAddress = 0************
41525500: global: 
******** DB INPUT2 ReadAddress = 0************
41525500: global: 
******** DB INPUT1 ReadAddress = 0************
41525500: global: 
******** DB INPUT2 ReadAddress = 0************
41525500: global: 
******** DB INPUT1 ReadAddress = 0************
41525500: global: 
******** DB INPUT2 ReadAddress = 0************
41525500: global: 
******** DB INPUT1 ReadAddress = 0************
41525500: global: 
******** DB INPUT2 ReadAddress = 0************
41525500: global: 
******** DB INPUT1 ReadAddress = 0************
41525500: global: 
******** DB INPUT2 ReadAddress = 0************
41525500: global: 
******** DB INPUT1 ReadAddress = 0************
41525500: global: 
******** DB INPUT2 ReadAddress = 0************
41525500: global: 
******** DB INPUT1 ReadAddress = 0************
41525500: global: 
******** DB INPUT2 ReadAddress = 0************
41525500: global: 
******** DB INPUT1 ReadAddress = 0************
41525500: global: 
******** DB INPUT2 ReadAddress = 0************
41525500: global: 
******** DB INPUT1 ReadAddress = 0************
41525500: global: 
******** DB INPUT2 ReadAddress = 0************
41525500: global: 
******** DB INPUT1 ReadAddress = 0************
41525500: global: 
******** DB INPUT2 ReadAddress = 0************
41525500: global: 
******** DB INPUT1 ReadAddress = 0************
41525500: global: 
******** DB INPUT2 ReadAddress = 0************
41525500: global: 
******** DB INPUT1 ReadAddress = 0************
41525500: global: 
******** DB INPUT2 ReadAddress = 0************
41525500: global: 
******** DB INPUT1 ReadAddress = 0************
41525500: global: 
******** DB INPUT2 ReadAddress = 0************
41525500: system.cpu: Ins: 4798398464, 11e01c000 @ PE 0
41525500: global: Predictor bit: 1	 Opcode: 1
41525500: global: 
Input1 = 0	Input2 = 0
41525500: global: 
******** LDI IN THIS PE 0************
41525500: global: 
************** WE *****************
41525500: global: 
WRITE: REG NUMBER: 3 dist: 0
41525500: global: R0: 0	R1: 0	R2: 0	R3: 0
41525500: global: 
WRITE: FPREG NUMBER: 3 dist: 0
41525500: global: FPR0: 0	FPR1: 0	FPR2: 0	FPR3: 0
41525500: global: Writing output 0 to register 3
41525500: global: Distance is: 0
41525500: system.cpu: Ins: 6306136064, 177e00000 @ PE 1
41525500: global: Predictor bit: 0	 Opcode: 7
41525500: global: CGRA: NOOP.Execute()
41525500: global: Distance is: 0
41525500: system.cpu: Ins: 6306136064, 177e00000 @ PE 2
41525500: global: Predictor bit: 0	 Opcode: 7
41525500: global: CGRA: NOOP.Execute()
41525500: global: Distance is: 0
41525500: system.cpu: Ins: 6306136064, 177e00000 @ PE 3
41525500: global: Predictor bit: 0	 Opcode: 7
41525500: global: CGRA: NOOP.Execute()
41525500: global: Distance is: 0
41525500: system.cpu: Ins: 6306136064, 177e00000 @ PE 4
41525500: global: Predictor bit: 0	 Opcode: 7
41525500: global: CGRA: NOOP.Execute()
41525500: global: Distance is: 0
41525500: system.cpu: Ins: 6306136064, 177e00000 @ PE 5
41525500: global: Predictor bit: 0	 Opcode: 7
41525500: global: CGRA: NOOP.Execute()
41525500: global: Distance is: 0
41525500: system.cpu: Ins: 6306136064, 177e00000 @ PE 6
41525500: global: Predictor bit: 0	 Opcode: 7
41525500: global: CGRA: NOOP.Execute()
41525500: global: Distance is: 0
41525500: system.cpu: Ins: 4798301760, 11e004640 @ PE 7
41525500: global: Predictor bit: 1	 Opcode: 1
41525500: global: 
Input1 = 1600	Input2 = 0
41525500: global: 
******** LDI IN THIS PE 1600************
41525500: global: 
************** WE *****************
41525500: global: 
WRITE: REG NUMBER: 0 dist: 0
41525500: global: R0: 1600	R1: 0	R2: 0	R3: 0
41525500: global: 
WRITE: FPREG NUMBER: 0 dist: 0
41525500: global: FPR0: 1600	FPR1: 0	FPR2: 0	FPR3: 0
41525500: global: Writing output 1600 to register 0
41525500: global: Distance is: 0
41525500: system.cpu: Ins: 6306136064, 177e00000 @ PE 8
41525500: global: Predictor bit: 0	 Opcode: 7
41525500: global: CGRA: NOOP.Execute()
41525500: global: Distance is: 0
41525500: system.cpu: Ins: 6306136064, 177e00000 @ PE 9
41525500: global: Predictor bit: 0	 Opcode: 7
41525500: global: CGRA: NOOP.Execute()
41525500: global: Distance is: 0
41525500: system.cpu: Ins: 6306136064, 177e00000 @ PE 10
41525500: global: Predictor bit: 0	 Opcode: 7
41525500: global: CGRA: NOOP.Execute()
41525500: global: Distance is: 0
41525500: system.cpu: Ins: 6306136064, 177e00000 @ PE 11
41525500: global: Predictor bit: 0	 Opcode: 7
41525500: global: CGRA: NOOP.Execute()
41525500: global: Distance is: 0
41525500: system.cpu: Ins: 6306136064, 177e00000 @ PE 12
41525500: global: Predictor bit: 0	 Opcode: 7
41525500: global: CGRA: NOOP.Execute()
41525500: global: Distance is: 0
41525500: system.cpu: Ins: 6306136064, 177e00000 @ PE 13
41525500: global: Predictor bit: 0	 Opcode: 7
41525500: global: CGRA: NOOP.Execute()
41525500: global: Distance is: 0
41525500: system.cpu: Ins: 6306136064, 177e00000 @ PE 14
41525500: global: Predictor bit: 0	 Opcode: 7
41525500: global: CGRA: NOOP.Execute()
41525500: global: Distance is: 0
41525500: system.cpu: Ins: 6306136064, 177e00000 @ PE 15
41525500: global: Predictor bit: 0	 Opcode: 7
41525500: global: CGRA: NOOP.Execute()
41525500: global: Distance is: 0
41525500: system.cpu: Ins: 6306136064, 177e00000 @ PE 16
41525500: global: Predictor bit: 0	 Opcode: 7
41525500: global: CGRA: NOOP.Execute()
41525500: global: Distance is: 0
41525500: system.cpu: Ins: 6306136064, 177e00000 @ PE 17
41525500: global: Predictor bit: 0	 Opcode: 7
41525500: global: CGRA: NOOP.Execute()
41525500: global: Distance is: 0
41525500: system.cpu: Ins: 6306136064, 177e00000 @ PE 18
41525500: global: Predictor bit: 0	 Opcode: 7
41525500: global: CGRA: NOOP.Execute()
41525500: global: Distance is: 0
41525500: system.cpu: Ins: 6306136064, 177e00000 @ PE 19
41525500: global: Predictor bit: 0	 Opcode: 7
41525500: global: CGRA: NOOP.Execute()
41525500: global: Distance is: 0
41525500: system.cpu: Ins: 6306136064, 177e00000 @ PE 20
41525500: global: Predictor bit: 0	 Opcode: 7
41525500: global: CGRA: NOOP.Execute()
41525500: global: Distance is: 0
41525500: system.cpu: Ins: 6306136064, 177e00000 @ PE 21
41525500: global: Predictor bit: 0	 Opcode: 7
41525500: global: CGRA: NOOP.Execute()
41525500: global: Distance is: 0
41525500: system.cpu: Ins: 6306136064, 177e00000 @ PE 22
41525500: global: Predictor bit: 0	 Opcode: 7
41525500: global: CGRA: NOOP.Execute()
41525500: global: Distance is: 0
41525500: system.cpu: Ins: 6306136064, 177e00000 @ PE 23
41525500: global: Predictor bit: 0	 Opcode: 7
41525500: global: CGRA: NOOP.Execute()
41525500: global: Distance is: 0
41525500: system.cpu: Ins: 6306136064, 177e00000 @ PE 24
41525500: global: Predictor bit: 0	 Opcode: 7
41525500: global: CGRA: NOOP.Execute()
41525500: global: Distance is: 0
41525500: system.cpu: Ins: 6306136064, 177e00000 @ PE 25
41525500: global: Predictor bit: 0	 Opcode: 7
41525500: global: CGRA: NOOP.Execute()
41525500: global: Distance is: 0
41525500: system.cpu: Ins: 6306136064, 177e00000 @ PE 26
41525500: global: Predictor bit: 0	 Opcode: 7
41525500: global: CGRA: NOOP.Execute()
41525500: global: Distance is: 0
41525500: system.cpu: Ins: 6306136064, 177e00000 @ PE 27
41525500: global: Predictor bit: 0	 Opcode: 7
41525500: global: CGRA: NOOP.Execute()
41525500: global: Distance is: 0
41525500: system.cpu: Ins: 6306136064, 177e00000 @ PE 28
41525500: global: Predictor bit: 0	 Opcode: 7
41525500: global: CGRA: NOOP.Execute()
41525500: global: Distance is: 0
41525500: system.cpu: Ins: 6306136064, 177e00000 @ PE 29
41525500: global: Predictor bit: 0	 Opcode: 7
41525500: global: CGRA: NOOP.Execute()
41525500: global: Distance is: 0
41525500: system.cpu: Ins: 6306136064, 177e00000 @ PE 30
41525500: global: Predictor bit: 0	 Opcode: 7
41525500: global: CGRA: NOOP.Execute()
41525500: global: Distance is: 0
41525500: system.cpu: Ins: 6306136064, 177e00000 @ PE 31
41525500: global: Predictor bit: 0	 Opcode: 7
41525500: global: CGRA: NOOP.Execute()
41525500: global: Distance is: 0
41525500: system.cpu: Ins: 6306136064, 177e00000 @ PE 32
41525500: global: Predictor bit: 0	 Opcode: 7
41525500: global: CGRA: NOOP.Execute()
41525500: global: Distance is: 0
41525500: system.cpu: Ins: 6306136064, 177e00000 @ PE 33
41525500: global: Predictor bit: 0	 Opcode: 7
41525500: global: CGRA: NOOP.Execute()
41525500: global: Distance is: 0
41525500: system.cpu: Ins: 6306136064, 177e00000 @ PE 34
41525500: global: Predictor bit: 0	 Opcode: 7
41525500: global: CGRA: NOOP.Execute()
41525500: global: Distance is: 0
41525500: system.cpu: Ins: 6306136064, 177e00000 @ PE 35
41525500: global: Predictor bit: 0	 Opcode: 7
41525500: global: CGRA: NOOP.Execute()
41525500: global: Distance is: 0
41525500: system.cpu: Ins: 6306136064, 177e00000 @ PE 36
41525500: global: Predictor bit: 0	 Opcode: 7
41525500: global: CGRA: NOOP.Execute()
41525500: global: Distance is: 0
41525500: system.cpu: Ins: 6306136064, 177e00000 @ PE 37
41525500: global: Predictor bit: 0	 Opcode: 7
41525500: global: CGRA: NOOP.Execute()
41525500: global: Distance is: 0
41525500: system.cpu: Ins: 6306136064, 177e00000 @ PE 38
41525500: global: Predictor bit: 0	 Opcode: 7
41525500: global: CGRA: NOOP.Execute()
41525500: global: Distance is: 0
41525500: system.cpu: Ins: 6306136064, 177e00000 @ PE 39
41525500: global: Predictor bit: 0	 Opcode: 7
41525500: global: CGRA: NOOP.Execute()
41525500: global: Distance is: 0
41525500: system.cpu: Ins: 6306136064, 177e00000 @ PE 40
41525500: global: Predictor bit: 0	 Opcode: 7
41525500: global: CGRA: NOOP.Execute()
41525500: global: Distance is: 0
41525500: system.cpu: Ins: 6306136064, 177e00000 @ PE 41
41525500: global: Predictor bit: 0	 Opcode: 7
41525500: global: CGRA: NOOP.Execute()
41525500: global: Distance is: 0
41525500: system.cpu: Ins: 6306136064, 177e00000 @ PE 42
41525500: global: Predictor bit: 0	 Opcode: 7
41525500: global: CGRA: NOOP.Execute()
41525500: global: Distance is: 0
41525500: system.cpu: Ins: 6306136064, 177e00000 @ PE 43
41525500: global: Predictor bit: 0	 Opcode: 7
41525500: global: CGRA: NOOP.Execute()
41525500: global: Distance is: 0
41525500: system.cpu: Ins: 6306136064, 177e00000 @ PE 44
41525500: global: Predictor bit: 0	 Opcode: 7
41525500: global: CGRA: NOOP.Execute()
41525500: global: Distance is: 0
41525500: system.cpu: Ins: 6306136064, 177e00000 @ PE 45
41525500: global: Predictor bit: 0	 Opcode: 7
41525500: global: CGRA: NOOP.Execute()
41525500: global: Distance is: 0
41525500: system.cpu: Ins: 6306136064, 177e00000 @ PE 46
41525500: global: Predictor bit: 0	 Opcode: 7
41525500: global: CGRA: NOOP.Execute()
41525500: global: Distance is: 0
41525500: system.cpu: Ins: 6306136064, 177e00000 @ PE 47
41525500: global: Predictor bit: 0	 Opcode: 7
41525500: global: CGRA: NOOP.Execute()
41525500: global: Distance is: 0
41525500: system.cpu: Ins: 6306136064, 177e00000 @ PE 48
41525500: global: Predictor bit: 0	 Opcode: 7
41525500: global: CGRA: NOOP.Execute()
41525500: global: Distance is: 0
41525500: system.cpu: Ins: 6306136064, 177e00000 @ PE 49
41525500: global: Predictor bit: 0	 Opcode: 7
41525500: global: CGRA: NOOP.Execute()
41525500: global: Distance is: 0
41525500: system.cpu: Ins: 0, 0 @ PE 50
41525500: global: Predictor bit: 0	 Opcode: 0
41525500: global: 
Input1 = 0	Input2 = 0
41525500: global: 
******** SUM IN THIS PE 0************
41525500: global: Distance is: 0
41525500: system.cpu: Ins: 0, 0 @ PE 51
41525500: global: Predictor bit: 0	 Opcode: 0
41525500: global: 
Input1 = 0	Input2 = 0
41525500: global: 
******** SUM IN THIS PE 0************
41525500: global: Distance is: 0
41525500: system.cpu: Ins: 0, 0 @ PE 52
41525500: global: Predictor bit: 0	 Opcode: 0
41525500: global: 
Input1 = 0	Input2 = 0
41525500: global: 
******** SUM IN THIS PE 0************
41525500: global: Distance is: 0
41525500: system.cpu: Ins: 0, 0 @ PE 53
41525500: global: Predictor bit: 0	 Opcode: 0
41525500: global: 
Input1 = 0	Input2 = 0
41525500: global: 
******** SUM IN THIS PE 0************
41525500: global: Distance is: 0
41525500: system.cpu: Ins: 0, 0 @ PE 54
41525500: global: Predictor bit: 0	 Opcode: 0
41525500: global: 
Input1 = 0	Input2 = 0
41525500: global: 
******** SUM IN THIS PE 0************
41525500: global: Distance is: 0
41525500: system.cpu: Ins: 0, 0 @ PE 55
41525500: global: Predictor bit: 0	 Opcode: 0
41525500: global: 
Input1 = 0	Input2 = 0
41525500: global: 
******** SUM IN THIS PE 0************
41525500: global: Distance is: 0
41525500: system.cpu: Ins: 0, 0 @ PE 56
41525500: global: Predictor bit: 0	 Opcode: 0
41525500: global: 
Input1 = 0	Input2 = 0
41525500: global: 
******** SUM IN THIS PE 0************
41525500: global: Distance is: 0
41525500: system.cpu: Ins: 0, 0 @ PE 57
41525500: global: Predictor bit: 0	 Opcode: 0
41525500: global: 
Input1 = 0	Input2 = 0
41525500: global: 
******** SUM IN THIS PE 0************
41525500: global: Distance is: 0
41525500: system.cpu: Ins: 0, 0 @ PE 58
41525500: global: Predictor bit: 0	 Opcode: 0
41525500: global: 
Input1 = 0	Input2 = 0
41525500: global: 
******** SUM IN THIS PE 0************
41525500: global: Distance is: 0
41525500: system.cpu: Ins: 0, 0 @ PE 59
41525500: global: Predictor bit: 0	 Opcode: 0
41525500: global: 
Input1 = 0	Input2 = 0
41525500: global: 
******** SUM IN THIS PE 0************
41525500: global: Distance is: 0
41525500: system.cpu: Ins: 0, 0 @ PE 60
41525500: global: Predictor bit: 0	 Opcode: 0
41525500: global: 
Input1 = 0	Input2 = 0
41525500: global: 
******** SUM IN THIS PE 0************
41525500: global: Distance is: 0
41525500: system.cpu: Ins: 0, 0 @ PE 61
41525500: global: Predictor bit: 0	 Opcode: 0
41525500: global: 
Input1 = 0	Input2 = 0
41525500: global: 
******** SUM IN THIS PE 0************
41525500: global: Distance is: 0
41525500: system.cpu: Ins: 0, 0 @ PE 62
41525500: global: Predictor bit: 0	 Opcode: 0
41525500: global: 
Input1 = 0	Input2 = 0
41525500: global: 
******** SUM IN THIS PE 0************
41525500: global: Distance is: 0
41525500: system.cpu: Ins: 0, 0 @ PE 63
41525500: global: Predictor bit: 0	 Opcode: 0
41525500: global: 
Input1 = 0	Input2 = 0
41525500: global: 
******** SUM IN THIS PE 0************
41525500: global: Distance is: 0
41525500: system.cpu: CGRA advanceTime complete.
41525500: system.cpu: *******IN ADVANCE PC******
41525500: system.cpu: build/ARM/cpu/atomiccgra/atomiccgra.cc,CGRA_advancePC,1759,PC:a4e70
41525500: system.cpu: Passed Complete Drain().
41525500: system.cpu: Make latency status=1.
41525500: system.cpu: Inside status idle.
41525500: system.cpu: Exiting schedule events
41525500: system.cpu: We are here after Execution
41526000: system.cpu: Inside CGRA Execution else statement.
41526000: system.cpu: Inside CGRA_Execution block.
41526000: system.cpu: 
CALL IN NOW CGRA_Execution.
41526000: system.cpu: 

 ~~~~~~ CGRA_Execution @ numCycles = 5 ~~~~~~~
41526000: global: 
******** DB INPUT2 ReadAddress = 0************
41526000: global: 
READ: REG NUMBER: 0 dist: 0
41526000: global: Rotating REGS data: 0	REG: 0
41526000: global: 
******** DB INPUT2 ReadAddress = 0************
41526000: system.cpu: Ins: 5066833920, 12e01c000 @ PE 0
41526000: global: Predictor bit: 1	 Opcode: 2
41526000: global: 
Input1 = 0	Input2 = 0
41526000: global: 
******** LDMI IN THIS PE 0************
41526000: global: 
************** WE *****************
41526000: global: 
WRITE: REG NUMBER: 3 dist: 0
41526000: global: R0: 0	R1: 0	R2: 0	R3: 0
41526000: global: 
WRITE: FPREG NUMBER: 3 dist: 0
41526000: global: FPR0: 0	FPR1: 0	FPR2: 0	FPR3: 0
41526000: global: Writing output 0 to register 3
41526000: global: Distance is: 0
41526000: system.cpu: Ins: 6306136064, 177e00000 @ PE 1
41526000: global: Predictor bit: 0	 Opcode: 7
41526000: global: CGRA: NOOP.Execute()
41526000: global: Distance is: 0
41526000: system.cpu: Ins: 6306136064, 177e00000 @ PE 2
41526000: global: Predictor bit: 0	 Opcode: 7
41526000: global: CGRA: NOOP.Execute()
41526000: global: Distance is: 0
41526000: system.cpu: Ins: 6306136064, 177e00000 @ PE 3
41526000: global: Predictor bit: 0	 Opcode: 7
41526000: global: CGRA: NOOP.Execute()
41526000: global: Distance is: 0
41526000: system.cpu: Ins: 6306136064, 177e00000 @ PE 4
41526000: global: Predictor bit: 0	 Opcode: 7
41526000: global: CGRA: NOOP.Execute()
41526000: global: Distance is: 0
41526000: system.cpu: Ins: 6306136064, 177e00000 @ PE 5
41526000: global: Predictor bit: 0	 Opcode: 7
41526000: global: CGRA: NOOP.Execute()
41526000: global: Distance is: 0
41526000: system.cpu: Ins: 6306136064, 177e00000 @ PE 6
41526000: global: Predictor bit: 0	 Opcode: 7
41526000: global: CGRA: NOOP.Execute()
41526000: global: Distance is: 0
41526000: system.cpu: Ins: 5066735770, 12e00409a @ PE 7
41526000: global: Predictor bit: 1	 Opcode: 2
41526000: global: 
Input1 = 154	Input2 = 1600
41526000: global: 
******** LDMI IN THIS PE 154************
41526000: global: 
************** WE *****************
41526000: global: 
WRITE: REG NUMBER: 0 dist: 0
41526000: global: R0: 632384	R1: 0	R2: 0	R3: 0
41526000: global: 
WRITE: FPREG NUMBER: 0 dist: 0
41526000: global: FPR0: 632384	FPR1: 0	FPR2: 0	FPR3: 0
41526000: global: Writing output 632384 to register 0
41526000: global: Distance is: 0
41526000: system.cpu: Ins: 6306136064, 177e00000 @ PE 8
41526000: global: Predictor bit: 0	 Opcode: 7
41526000: global: CGRA: NOOP.Execute()
41526000: global: Distance is: 0
41526000: system.cpu: Ins: 6306136064, 177e00000 @ PE 9
41526000: global: Predictor bit: 0	 Opcode: 7
41526000: global: CGRA: NOOP.Execute()
41526000: global: Distance is: 0
41526000: system.cpu: Ins: 6306136064, 177e00000 @ PE 10
41526000: global: Predictor bit: 0	 Opcode: 7
41526000: global: CGRA: NOOP.Execute()
41526000: global: Distance is: 0
41526000: system.cpu: Ins: 6306136064, 177e00000 @ PE 11
41526000: global: Predictor bit: 0	 Opcode: 7
41526000: global: CGRA: NOOP.Execute()
41526000: global: Distance is: 0
41526000: system.cpu: Ins: 6306136064, 177e00000 @ PE 12
41526000: global: Predictor bit: 0	 Opcode: 7
41526000: global: CGRA: NOOP.Execute()
41526000: global: Distance is: 0
41526000: system.cpu: Ins: 6306136064, 177e00000 @ PE 13
41526000: global: Predictor bit: 0	 Opcode: 7
41526000: global: CGRA: NOOP.Execute()
41526000: global: Distance is: 0
41526000: system.cpu: Ins: 6306136064, 177e00000 @ PE 14
41526000: global: Predictor bit: 0	 Opcode: 7
41526000: global: CGRA: NOOP.Execute()
41526000: global: Distance is: 0
41526000: system.cpu: Ins: 6306136064, 177e00000 @ PE 15
41526000: global: Predictor bit: 0	 Opcode: 7
41526000: global: CGRA: NOOP.Execute()
41526000: global: Distance is: 0
41526000: system.cpu: Ins: 6306136064, 177e00000 @ PE 16
41526000: global: Predictor bit: 0	 Opcode: 7
41526000: global: CGRA: NOOP.Execute()
41526000: global: Distance is: 0
41526000: system.cpu: Ins: 6306136064, 177e00000 @ PE 17
41526000: global: Predictor bit: 0	 Opcode: 7
41526000: global: CGRA: NOOP.Execute()
41526000: global: Distance is: 0
41526000: system.cpu: Ins: 6306136064, 177e00000 @ PE 18
41526000: global: Predictor bit: 0	 Opcode: 7
41526000: global: CGRA: NOOP.Execute()
41526000: global: Distance is: 0
41526000: system.cpu: Ins: 6306136064, 177e00000 @ PE 19
41526000: global: Predictor bit: 0	 Opcode: 7
41526000: global: CGRA: NOOP.Execute()
41526000: global: Distance is: 0
41526000: system.cpu: Ins: 6306136064, 177e00000 @ PE 20
41526000: global: Predictor bit: 0	 Opcode: 7
41526000: global: CGRA: NOOP.Execute()
41526000: global: Distance is: 0
41526000: system.cpu: Ins: 6306136064, 177e00000 @ PE 21
41526000: global: Predictor bit: 0	 Opcode: 7
41526000: global: CGRA: NOOP.Execute()
41526000: global: Distance is: 0
41526000: system.cpu: Ins: 6306136064, 177e00000 @ PE 22
41526000: global: Predictor bit: 0	 Opcode: 7
41526000: global: CGRA: NOOP.Execute()
41526000: global: Distance is: 0
41526000: system.cpu: Ins: 6306136064, 177e00000 @ PE 23
41526000: global: Predictor bit: 0	 Opcode: 7
41526000: global: CGRA: NOOP.Execute()
41526000: global: Distance is: 0
41526000: system.cpu: Ins: 6306136064, 177e00000 @ PE 24
41526000: global: Predictor bit: 0	 Opcode: 7
41526000: global: CGRA: NOOP.Execute()
41526000: global: Distance is: 0
41526000: system.cpu: Ins: 6306136064, 177e00000 @ PE 25
41526000: global: Predictor bit: 0	 Opcode: 7
41526000: global: CGRA: NOOP.Execute()
41526000: global: Distance is: 0
41526000: system.cpu: Ins: 6306136064, 177e00000 @ PE 26
41526000: global: Predictor bit: 0	 Opcode: 7
41526000: global: CGRA: NOOP.Execute()
41526000: global: Distance is: 0
41526000: system.cpu: Ins: 6306136064, 177e00000 @ PE 27
41526000: global: Predictor bit: 0	 Opcode: 7
41526000: global: CGRA: NOOP.Execute()
41526000: global: Distance is: 0
41526000: system.cpu: Ins: 6306136064, 177e00000 @ PE 28
41526000: global: Predictor bit: 0	 Opcode: 7
41526000: global: CGRA: NOOP.Execute()
41526000: global: Distance is: 0
41526000: system.cpu: Ins: 6306136064, 177e00000 @ PE 29
41526000: global: Predictor bit: 0	 Opcode: 7
41526000: global: CGRA: NOOP.Execute()
41526000: global: Distance is: 0
41526000: system.cpu: Ins: 6306136064, 177e00000 @ PE 30
41526000: global: Predictor bit: 0	 Opcode: 7
41526000: global: CGRA: NOOP.Execute()
41526000: global: Distance is: 0
41526000: system.cpu: Ins: 6306136064, 177e00000 @ PE 31
41526000: global: Predictor bit: 0	 Opcode: 7
41526000: global: CGRA: NOOP.Execute()
41526000: global: Distance is: 0
41526000: system.cpu: Ins: 6306136064, 177e00000 @ PE 32
41526000: global: Predictor bit: 0	 Opcode: 7
41526000: global: CGRA: NOOP.Execute()
41526000: global: Distance is: 0
41526000: system.cpu: Ins: 6306136064, 177e00000 @ PE 33
41526000: global: Predictor bit: 0	 Opcode: 7
41526000: global: CGRA: NOOP.Execute()
41526000: global: Distance is: 0
41526000: system.cpu: Ins: 6306136064, 177e00000 @ PE 34
41526000: global: Predictor bit: 0	 Opcode: 7
41526000: global: CGRA: NOOP.Execute()
41526000: global: Distance is: 0
41526000: system.cpu: Ins: 6306136064, 177e00000 @ PE 35
41526000: global: Predictor bit: 0	 Opcode: 7
41526000: global: CGRA: NOOP.Execute()
41526000: global: Distance is: 0
41526000: system.cpu: Ins: 6306136064, 177e00000 @ PE 36
41526000: global: Predictor bit: 0	 Opcode: 7
41526000: global: CGRA: NOOP.Execute()
41526000: global: Distance is: 0
41526000: system.cpu: Ins: 6306136064, 177e00000 @ PE 37
41526000: global: Predictor bit: 0	 Opcode: 7
41526000: global: CGRA: NOOP.Execute()
41526000: global: Distance is: 0
41526000: system.cpu: Ins: 6306136064, 177e00000 @ PE 38
41526000: global: Predictor bit: 0	 Opcode: 7
41526000: global: CGRA: NOOP.Execute()
41526000: global: Distance is: 0
41526000: system.cpu: Ins: 6306136064, 177e00000 @ PE 39
41526000: global: Predictor bit: 0	 Opcode: 7
41526000: global: CGRA: NOOP.Execute()
41526000: global: Distance is: 0
41526000: system.cpu: Ins: 6306136064, 177e00000 @ PE 40
41526000: global: Predictor bit: 0	 Opcode: 7
41526000: global: CGRA: NOOP.Execute()
41526000: global: Distance is: 0
41526000: system.cpu: Ins: 6306136064, 177e00000 @ PE 41
41526000: global: Predictor bit: 0	 Opcode: 7
41526000: global: CGRA: NOOP.Execute()
41526000: global: Distance is: 0
41526000: system.cpu: Ins: 6306136064, 177e00000 @ PE 42
41526000: global: Predictor bit: 0	 Opcode: 7
41526000: global: CGRA: NOOP.Execute()
41526000: global: Distance is: 0
41526000: system.cpu: Ins: 6306136064, 177e00000 @ PE 43
41526000: global: Predictor bit: 0	 Opcode: 7
41526000: global: CGRA: NOOP.Execute()
41526000: global: Distance is: 0
41526000: system.cpu: Ins: 6306136064, 177e00000 @ PE 44
41526000: global: Predictor bit: 0	 Opcode: 7
41526000: global: CGRA: NOOP.Execute()
41526000: global: Distance is: 0
41526000: system.cpu: Ins: 6306136064, 177e00000 @ PE 45
41526000: global: Predictor bit: 0	 Opcode: 7
41526000: global: CGRA: NOOP.Execute()
41526000: global: Distance is: 0
41526000: system.cpu: Ins: 6306136064, 177e00000 @ PE 46
41526000: global: Predictor bit: 0	 Opcode: 7
41526000: global: CGRA: NOOP.Execute()
41526000: global: Distance is: 0
41526000: system.cpu: Ins: 6306136064, 177e00000 @ PE 47
41526000: global: Predictor bit: 0	 Opcode: 7
41526000: global: CGRA: NOOP.Execute()
41526000: global: Distance is: 0
41526000: system.cpu: Ins: 6306136064, 177e00000 @ PE 48
41526000: global: Predictor bit: 0	 Opcode: 7
41526000: global: CGRA: NOOP.Execute()
41526000: global: Distance is: 0
41526000: system.cpu: Ins: 6306136064, 177e00000 @ PE 49
41526000: global: Predictor bit: 0	 Opcode: 7
41526000: global: CGRA: NOOP.Execute()
41526000: global: Distance is: 0
41526000: system.cpu: Ins: 6306136064, 177e00000 @ PE 50
41526000: global: Predictor bit: 0	 Opcode: 7
41526000: global: CGRA: NOOP.Execute()
41526000: global: Distance is: 0
41526000: system.cpu: Ins: 6306136064, 177e00000 @ PE 51
41526000: global: Predictor bit: 0	 Opcode: 7
41526000: global: CGRA: NOOP.Execute()
41526000: global: Distance is: 0
41526000: system.cpu: Ins: 6306136064, 177e00000 @ PE 52
41526000: global: Predictor bit: 0	 Opcode: 7
41526000: global: CGRA: NOOP.Execute()
41526000: global: Distance is: 0
41526000: system.cpu: Ins: 6306136064, 177e00000 @ PE 53
41526000: global: Predictor bit: 0	 Opcode: 7
41526000: global: CGRA: NOOP.Execute()
41526000: global: Distance is: 0
41526000: system.cpu: Ins: 6306136064, 177e00000 @ PE 54
41526000: global: Predictor bit: 0	 Opcode: 7
41526000: global: CGRA: NOOP.Execute()
41526000: global: Distance is: 0
41526000: system.cpu: Ins: 6306136064, 177e00000 @ PE 55
41526000: global: Predictor bit: 0	 Opcode: 7
41526000: global: CGRA: NOOP.Execute()
41526000: global: Distance is: 0
41526000: system.cpu: Ins: 6306136064, 177e00000 @ PE 56
41526000: global: Predictor bit: 0	 Opcode: 7
41526000: global: CGRA: NOOP.Execute()
41526000: global: Distance is: 0
41526000: system.cpu: Ins: 6306136064, 177e00000 @ PE 57
41526000: global: Predictor bit: 0	 Opcode: 7
41526000: global: CGRA: NOOP.Execute()
41526000: global: Distance is: 0
41526000: system.cpu: Ins: 6306136064, 177e00000 @ PE 58
41526000: global: Predictor bit: 0	 Opcode: 7
41526000: global: CGRA: NOOP.Execute()
41526000: global: Distance is: 0
41526000: system.cpu: Ins: 6306136064, 177e00000 @ PE 59
41526000: global: Predictor bit: 0	 Opcode: 7
41526000: global: CGRA: NOOP.Execute()
41526000: global: Distance is: 0
41526000: system.cpu: Ins: 6306136064, 177e00000 @ PE 60
41526000: global: Predictor bit: 0	 Opcode: 7
41526000: global: CGRA: NOOP.Execute()
41526000: global: Distance is: 0
41526000: system.cpu: Ins: 6306136064, 177e00000 @ PE 61
41526000: global: Predictor bit: 0	 Opcode: 7
41526000: global: CGRA: NOOP.Execute()
41526000: global: Distance is: 0
41526000: system.cpu: Ins: 6306136064, 177e00000 @ PE 62
41526000: global: Predictor bit: 0	 Opcode: 7
41526000: global: CGRA: NOOP.Execute()
41526000: global: Distance is: 0
41526000: system.cpu: Ins: 6306136064, 177e00000 @ PE 63
41526000: global: Predictor bit: 0	 Opcode: 7
41526000: global: CGRA: NOOP.Execute()
41526000: global: Distance is: 0
41526000: system.cpu: CGRA advanceTime complete.
41526000: system.cpu: *******IN ADVANCE PC******
41526000: system.cpu: build/ARM/cpu/atomiccgra/atomiccgra.cc,CGRA_advancePC,1759,PC:a5070
41526000: system.cpu: Passed Complete Drain().
41526000: system.cpu: Make latency status=1.
41526000: system.cpu: Inside status idle.
41526000: system.cpu: Exiting schedule events
41526000: system.cpu: We are here after Execution
41526500: system.cpu: Inside CGRA Execution else statement.
41526500: system.cpu: Inside CGRA_Execution block.
41526500: system.cpu: 
CALL IN NOW CGRA_Execution.
41526500: system.cpu: 

 ~~~~~~ CGRA_Execution @ numCycles = 7 ~~~~~~~
41526500: global: 
******** DB INPUT2 ReadAddress = 0************
41526500: global: 
READ: REG NUMBER: 0 dist: 0
41526500: global: Rotating REGS data: 0	REG: 0
41526500: global: 
******** DB INPUT2 ReadAddress = 0************
41526500: system.cpu: Ins: 5335269376, 13e01c000 @ PE 0
41526500: global: Predictor bit: 1	 Opcode: 3
41526500: global: 
Input1 = 0	Input2 = 0
41526500: global: 
******** LDUI IN THIS PE 0************
41526500: global: 
************** WE *****************
41526500: global: 
WRITE: REG NUMBER: 3 dist: 0
41526500: global: R0: 0	R1: 0	R2: 0	R3: 0
41526500: global: 
WRITE: FPREG NUMBER: 3 dist: 0
41526500: global: FPR0: 0	FPR1: 0	FPR2: 0	FPR3: 0
41526500: global: Writing output 0 to register 3
41526500: global: Distance is: 0
41526500: system.cpu: Ins: 6306136064, 177e00000 @ PE 1
41526500: global: Predictor bit: 0	 Opcode: 7
41526500: global: CGRA: NOOP.Execute()
41526500: global: Distance is: 0
41526500: system.cpu: Ins: 6306136064, 177e00000 @ PE 2
41526500: global: Predictor bit: 0	 Opcode: 7
41526500: global: CGRA: NOOP.Execute()
41526500: global: Distance is: 0
41526500: system.cpu: Ins: 6306136064, 177e00000 @ PE 3
41526500: global: Predictor bit: 0	 Opcode: 7
41526500: global: CGRA: NOOP.Execute()
41526500: global: Distance is: 0
41526500: system.cpu: Ins: 6306136064, 177e00000 @ PE 4
41526500: global: Predictor bit: 0	 Opcode: 7
41526500: global: CGRA: NOOP.Execute()
41526500: global: Distance is: 0
41526500: system.cpu: Ins: 6306136064, 177e00000 @ PE 5
41526500: global: Predictor bit: 0	 Opcode: 7
41526500: global: CGRA: NOOP.Execute()
41526500: global: Distance is: 0
41526500: system.cpu: Ins: 6306136064, 177e00000 @ PE 6
41526500: global: Predictor bit: 0	 Opcode: 7
41526500: global: CGRA: NOOP.Execute()
41526500: global: Distance is: 0
41526500: system.cpu: Ins: 5335171072, 13e004000 @ PE 7
41526500: global: Predictor bit: 1	 Opcode: 3
41526500: global: 
Input1 = 0	Input2 = 632384
41526500: global: 
******** LDUI IN THIS PE 0************
41526500: global: 
************** WE *****************
41526500: global: 
WRITE: REG NUMBER: 0 dist: 0
41526500: global: R0: 632384	R1: 0	R2: 0	R3: 0
41526500: global: 
WRITE: FPREG NUMBER: 0 dist: 0
41526500: global: FPR0: 632384	FPR1: 0	FPR2: 0	FPR3: 0
41526500: global: Writing output 632384 to register 0
41526500: global: Distance is: 0
41526500: system.cpu: Ins: 6306136064, 177e00000 @ PE 8
41526500: global: Predictor bit: 0	 Opcode: 7
41526500: global: CGRA: NOOP.Execute()
41526500: global: Distance is: 0
41526500: system.cpu: Ins: 6306136064, 177e00000 @ PE 9
41526500: global: Predictor bit: 0	 Opcode: 7
41526500: global: CGRA: NOOP.Execute()
41526500: global: Distance is: 0
41526500: system.cpu: Ins: 6306136064, 177e00000 @ PE 10
41526500: global: Predictor bit: 0	 Opcode: 7
41526500: global: CGRA: NOOP.Execute()
41526500: global: Distance is: 0
41526500: system.cpu: Ins: 6306136064, 177e00000 @ PE 11
41526500: global: Predictor bit: 0	 Opcode: 7
41526500: global: CGRA: NOOP.Execute()
41526500: global: Distance is: 0
41526500: system.cpu: Ins: 6306136064, 177e00000 @ PE 12
41526500: global: Predictor bit: 0	 Opcode: 7
41526500: global: CGRA: NOOP.Execute()
41526500: global: Distance is: 0
41526500: system.cpu: Ins: 6306136064, 177e00000 @ PE 13
41526500: global: Predictor bit: 0	 Opcode: 7
41526500: global: CGRA: NOOP.Execute()
41526500: global: Distance is: 0
41526500: system.cpu: Ins: 6306136064, 177e00000 @ PE 14
41526500: global: Predictor bit: 0	 Opcode: 7
41526500: global: CGRA: NOOP.Execute()
41526500: global: Distance is: 0
41526500: system.cpu: Ins: 6306136064, 177e00000 @ PE 15
41526500: global: Predictor bit: 0	 Opcode: 7
41526500: global: CGRA: NOOP.Execute()
41526500: global: Distance is: 0
41526500: system.cpu: Ins: 6306136064, 177e00000 @ PE 16
41526500: global: Predictor bit: 0	 Opcode: 7
41526500: global: CGRA: NOOP.Execute()
41526500: global: Distance is: 0
41526500: system.cpu: Ins: 6306136064, 177e00000 @ PE 17
41526500: global: Predictor bit: 0	 Opcode: 7
41526500: global: CGRA: NOOP.Execute()
41526500: global: Distance is: 0
41526500: system.cpu: Ins: 6306136064, 177e00000 @ PE 18
41526500: global: Predictor bit: 0	 Opcode: 7
41526500: global: CGRA: NOOP.Execute()
41526500: global: Distance is: 0
41526500: system.cpu: Ins: 6306136064, 177e00000 @ PE 19
41526500: global: Predictor bit: 0	 Opcode: 7
41526500: global: CGRA: NOOP.Execute()
41526500: global: Distance is: 0
41526500: system.cpu: Ins: 6306136064, 177e00000 @ PE 20
41526500: global: Predictor bit: 0	 Opcode: 7
41526500: global: CGRA: NOOP.Execute()
41526500: global: Distance is: 0
41526500: system.cpu: Ins: 6306136064, 177e00000 @ PE 21
41526500: global: Predictor bit: 0	 Opcode: 7
41526500: global: CGRA: NOOP.Execute()
41526500: global: Distance is: 0
41526500: system.cpu: Ins: 6306136064, 177e00000 @ PE 22
41526500: global: Predictor bit: 0	 Opcode: 7
41526500: global: CGRA: NOOP.Execute()
41526500: global: Distance is: 0
41526500: system.cpu: Ins: 6306136064, 177e00000 @ PE 23
41526500: global: Predictor bit: 0	 Opcode: 7
41526500: global: CGRA: NOOP.Execute()
41526500: global: Distance is: 0
41526500: system.cpu: Ins: 6306136064, 177e00000 @ PE 24
41526500: global: Predictor bit: 0	 Opcode: 7
41526500: global: CGRA: NOOP.Execute()
41526500: global: Distance is: 0
41526500: system.cpu: Ins: 6306136064, 177e00000 @ PE 25
41526500: global: Predictor bit: 0	 Opcode: 7
41526500: global: CGRA: NOOP.Execute()
41526500: global: Distance is: 0
41526500: system.cpu: Ins: 6306136064, 177e00000 @ PE 26
41526500: global: Predictor bit: 0	 Opcode: 7
41526500: global: CGRA: NOOP.Execute()
41526500: global: Distance is: 0
41526500: system.cpu: Ins: 6306136064, 177e00000 @ PE 27
41526500: global: Predictor bit: 0	 Opcode: 7
41526500: global: CGRA: NOOP.Execute()
41526500: global: Distance is: 0
41526500: system.cpu: Ins: 6306136064, 177e00000 @ PE 28
41526500: global: Predictor bit: 0	 Opcode: 7
41526500: global: CGRA: NOOP.Execute()
41526500: global: Distance is: 0
41526500: system.cpu: Ins: 6306136064, 177e00000 @ PE 29
41526500: global: Predictor bit: 0	 Opcode: 7
41526500: global: CGRA: NOOP.Execute()
41526500: global: Distance is: 0
41526500: system.cpu: Ins: 6306136064, 177e00000 @ PE 30
41526500: global: Predictor bit: 0	 Opcode: 7
41526500: global: CGRA: NOOP.Execute()
41526500: global: Distance is: 0
41526500: system.cpu: Ins: 6306136064, 177e00000 @ PE 31
41526500: global: Predictor bit: 0	 Opcode: 7
41526500: global: CGRA: NOOP.Execute()
41526500: global: Distance is: 0
41526500: system.cpu: Ins: 6306136064, 177e00000 @ PE 32
41526500: global: Predictor bit: 0	 Opcode: 7
41526500: global: CGRA: NOOP.Execute()
41526500: global: Distance is: 0
41526500: system.cpu: Ins: 6306136064, 177e00000 @ PE 33
41526500: global: Predictor bit: 0	 Opcode: 7
41526500: global: CGRA: NOOP.Execute()
41526500: global: Distance is: 0
41526500: system.cpu: Ins: 6306136064, 177e00000 @ PE 34
41526500: global: Predictor bit: 0	 Opcode: 7
41526500: global: CGRA: NOOP.Execute()
41526500: global: Distance is: 0
41526500: system.cpu: Ins: 6306136064, 177e00000 @ PE 35
41526500: global: Predictor bit: 0	 Opcode: 7
41526500: global: CGRA: NOOP.Execute()
41526500: global: Distance is: 0
41526500: system.cpu: Ins: 6306136064, 177e00000 @ PE 36
41526500: global: Predictor bit: 0	 Opcode: 7
41526500: global: CGRA: NOOP.Execute()
41526500: global: Distance is: 0
41526500: system.cpu: Ins: 6306136064, 177e00000 @ PE 37
41526500: global: Predictor bit: 0	 Opcode: 7
41526500: global: CGRA: NOOP.Execute()
41526500: global: Distance is: 0
41526500: system.cpu: Ins: 6306136064, 177e00000 @ PE 38
41526500: global: Predictor bit: 0	 Opcode: 7
41526500: global: CGRA: NOOP.Execute()
41526500: global: Distance is: 0
41526500: system.cpu: Ins: 6306136064, 177e00000 @ PE 39
41526500: global: Predictor bit: 0	 Opcode: 7
41526500: global: CGRA: NOOP.Execute()
41526500: global: Distance is: 0
41526500: system.cpu: Ins: 6306136064, 177e00000 @ PE 40
41526500: global: Predictor bit: 0	 Opcode: 7
41526500: global: CGRA: NOOP.Execute()
41526500: global: Distance is: 0
41526500: system.cpu: Ins: 6306136064, 177e00000 @ PE 41
41526500: global: Predictor bit: 0	 Opcode: 7
41526500: global: CGRA: NOOP.Execute()
41526500: global: Distance is: 0
41526500: system.cpu: Ins: 6306136064, 177e00000 @ PE 42
41526500: global: Predictor bit: 0	 Opcode: 7
41526500: global: CGRA: NOOP.Execute()
41526500: global: Distance is: 0
41526500: system.cpu: Ins: 6306136064, 177e00000 @ PE 43
41526500: global: Predictor bit: 0	 Opcode: 7
41526500: global: CGRA: NOOP.Execute()
41526500: global: Distance is: 0
41526500: system.cpu: Ins: 6306136064, 177e00000 @ PE 44
41526500: global: Predictor bit: 0	 Opcode: 7
41526500: global: CGRA: NOOP.Execute()
41526500: global: Distance is: 0
41526500: system.cpu: Ins: 6306136064, 177e00000 @ PE 45
41526500: global: Predictor bit: 0	 Opcode: 7
41526500: global: CGRA: NOOP.Execute()
41526500: global: Distance is: 0
41526500: system.cpu: Ins: 6306136064, 177e00000 @ PE 46
41526500: global: Predictor bit: 0	 Opcode: 7
41526500: global: CGRA: NOOP.Execute()
41526500: global: Distance is: 0
41526500: system.cpu: Ins: 6306136064, 177e00000 @ PE 47
41526500: global: Predictor bit: 0	 Opcode: 7
41526500: global: CGRA: NOOP.Execute()
41526500: global: Distance is: 0
41526500: system.cpu: Ins: 6306136064, 177e00000 @ PE 48
41526500: global: Predictor bit: 0	 Opcode: 7
41526500: global: CGRA: NOOP.Execute()
41526500: global: Distance is: 0
41526500: system.cpu: Ins: 6306136064, 177e00000 @ PE 49
41526500: global: Predictor bit: 0	 Opcode: 7
41526500: global: CGRA: NOOP.Execute()
41526500: global: Distance is: 0
41526500: system.cpu: Ins: 6306136064, 177e00000 @ PE 50
41526500: global: Predictor bit: 0	 Opcode: 7
41526500: global: CGRA: NOOP.Execute()
41526500: global: Distance is: 0
41526500: system.cpu: Ins: 6306136064, 177e00000 @ PE 51
41526500: global: Predictor bit: 0	 Opcode: 7
41526500: global: CGRA: NOOP.Execute()
41526500: global: Distance is: 0
41526500: system.cpu: Ins: 6306136064, 177e00000 @ PE 52
41526500: global: Predictor bit: 0	 Opcode: 7
41526500: global: CGRA: NOOP.Execute()
41526500: global: Distance is: 0
41526500: system.cpu: Ins: 6306136064, 177e00000 @ PE 53
41526500: global: Predictor bit: 0	 Opcode: 7
41526500: global: CGRA: NOOP.Execute()
41526500: global: Distance is: 0
41526500: system.cpu: Ins: 6306136064, 177e00000 @ PE 54
41526500: global: Predictor bit: 0	 Opcode: 7
41526500: global: CGRA: NOOP.Execute()
41526500: global: Distance is: 0
41526500: system.cpu: Ins: 6306136064, 177e00000 @ PE 55
41526500: global: Predictor bit: 0	 Opcode: 7
41526500: global: CGRA: NOOP.Execute()
41526500: global: Distance is: 0
41526500: system.cpu: Ins: 6306136064, 177e00000 @ PE 56
41526500: global: Predictor bit: 0	 Opcode: 7
41526500: global: CGRA: NOOP.Execute()
41526500: global: Distance is: 0
41526500: system.cpu: Ins: 6306136064, 177e00000 @ PE 57
41526500: global: Predictor bit: 0	 Opcode: 7
41526500: global: CGRA: NOOP.Execute()
41526500: global: Distance is: 0
41526500: system.cpu: Ins: 6306136064, 177e00000 @ PE 58
41526500: global: Predictor bit: 0	 Opcode: 7
41526500: global: CGRA: NOOP.Execute()
41526500: global: Distance is: 0
41526500: system.cpu: Ins: 6306136064, 177e00000 @ PE 59
41526500: global: Predictor bit: 0	 Opcode: 7
41526500: global: CGRA: NOOP.Execute()
41526500: global: Distance is: 0
41526500: system.cpu: Ins: 6306136064, 177e00000 @ PE 60
41526500: global: Predictor bit: 0	 Opcode: 7
41526500: global: CGRA: NOOP.Execute()
41526500: global: Distance is: 0
41526500: system.cpu: Ins: 6306136064, 177e00000 @ PE 61
41526500: global: Predictor bit: 0	 Opcode: 7
41526500: global: CGRA: NOOP.Execute()
41526500: global: Distance is: 0
41526500: system.cpu: Ins: 6306136064, 177e00000 @ PE 62
41526500: global: Predictor bit: 0	 Opcode: 7
41526500: global: CGRA: NOOP.Execute()
41526500: global: Distance is: 0
41526500: system.cpu: Ins: 6306136064, 177e00000 @ PE 63
41526500: global: Predictor bit: 0	 Opcode: 7
41526500: global: CGRA: NOOP.Execute()
41526500: global: Distance is: 0
41526500: system.cpu: CGRA advanceTime complete.
41526500: system.cpu: *******IN ADVANCE PC******
41526500: system.cpu: build/ARM/cpu/atomiccgra/atomiccgra.cc,CGRA_advancePC,1759,PC:a5270
41526500: system.cpu: Passed Complete Drain().
41526500: system.cpu: Make latency status=1.
41526500: system.cpu: Inside status idle.
41526500: system.cpu: Exiting schedule events
41526500: system.cpu: We are here after Execution
41527000: system.cpu: Inside CGRA Execution else statement.
41527000: system.cpu: Inside CGRA_Execution block.
41527000: system.cpu: 
CALL IN NOW CGRA_Execution.
41527000: system.cpu: 

 ~~~~~~ CGRA_Execution @ numCycles = 9 ~~~~~~~
41527000: global: 
******** DB INPUT2 ReadAddress = 0************
41527000: global: 
READ: REG NUMBER: 0 dist: 0
41527000: global: Rotating REGS data: 0	REG: 0
41527000: global: 
******** DB INPUT1 ReadAddress = 0************
41527000: system.cpu: Ins: 4798300165, 11e004005 @ PE 0
41527000: global: Predictor bit: 1	 Opcode: 1
41527000: global: 
Input1 = 5	Input2 = 0
41527000: global: 
******** LDI IN THIS PE 5************
41527000: global: 
************** WE *****************
41527000: global: 
WRITE: REG NUMBER: 0 dist: 0
41527000: global: 
WRITE: REG NUMBER: 0 dist: 0
41527000: global: 
WRITE PHYS REG NUMBER: 0	data: 5
41527000: global: R0: 5	R1: 0	R2: 0	R3: 0
41527000: global: 
WRITE: FPREG NUMBER: 0 dist: 0
41527000: global: 
WRITE: FPREG NUMBER: 0 dist: 0
41527000: global: 
WRITE PHYS FPREG NUMBER: 0	data: 5
41527000: global: FPR0: 5	FPR1: 0	FPR2: 0	FPR3: 0
41527000: global: Writing output 5 to register 0
41527000: global: Distance is: 0
41527000: system.cpu: Ins: 6306136064, 177e00000 @ PE 1
41527000: global: Predictor bit: 0	 Opcode: 7
41527000: global: CGRA: NOOP.Execute()
41527000: global: Distance is: 0
41527000: system.cpu: Ins: 6306136064, 177e00000 @ PE 2
41527000: global: Predictor bit: 0	 Opcode: 7
41527000: global: CGRA: NOOP.Execute()
41527000: global: Distance is: 0
41527000: system.cpu: Ins: 6306136064, 177e00000 @ PE 3
41527000: global: Predictor bit: 0	 Opcode: 7
41527000: global: CGRA: NOOP.Execute()
41527000: global: Distance is: 0
41527000: system.cpu: Ins: 6306136064, 177e00000 @ PE 4
41527000: global: Predictor bit: 0	 Opcode: 7
41527000: global: CGRA: NOOP.Execute()
41527000: global: Distance is: 0
41527000: system.cpu: Ins: 6306136064, 177e00000 @ PE 5
41527000: global: Predictor bit: 0	 Opcode: 7
41527000: global: CGRA: NOOP.Execute()
41527000: global: Distance is: 0
41527000: system.cpu: Ins: 6306136064, 177e00000 @ PE 6
41527000: global: Predictor bit: 0	 Opcode: 7
41527000: global: CGRA: NOOP.Execute()
41527000: global: Distance is: 0
41527000: system.cpu: Ins: 6052388868, 168c02004 @ PE 7
41527000: global: Predictor bit: 1	 Opcode: 6
41527000: global: 
Input1 = 632384	Input2 = 4
41527000: global: 
******** ADDRESS GENERATED IN THIS PE 632384************
41527000: global: 
*********Setting Address 9a640 ******
41527000: global: Distance is: 0
41527000: system.cpu: Ins: 6306136064, 177e00000 @ PE 8
41527000: global: Predictor bit: 0	 Opcode: 7
41527000: global: CGRA: NOOP.Execute()
41527000: global: Distance is: 0
41527000: system.cpu: Ins: 6306136064, 177e00000 @ PE 9
41527000: global: Predictor bit: 0	 Opcode: 7
41527000: global: CGRA: NOOP.Execute()
41527000: global: Distance is: 0
41527000: system.cpu: Ins: 6306136064, 177e00000 @ PE 10
41527000: global: Predictor bit: 0	 Opcode: 7
41527000: global: CGRA: NOOP.Execute()
41527000: global: Distance is: 0
41527000: system.cpu: Ins: 6306136064, 177e00000 @ PE 11
41527000: global: Predictor bit: 0	 Opcode: 7
41527000: global: CGRA: NOOP.Execute()
41527000: global: Distance is: 0
41527000: system.cpu: Ins: 6306136064, 177e00000 @ PE 12
41527000: global: Predictor bit: 0	 Opcode: 7
41527000: global: CGRA: NOOP.Execute()
41527000: global: Distance is: 0
41527000: system.cpu: Ins: 6306136064, 177e00000 @ PE 13
41527000: global: Predictor bit: 0	 Opcode: 7
41527000: global: CGRA: NOOP.Execute()
41527000: global: Distance is: 0
41527000: system.cpu: Ins: 6306136064, 177e00000 @ PE 14
41527000: global: Predictor bit: 0	 Opcode: 7
41527000: global: CGRA: NOOP.Execute()
41527000: global: Distance is: 0
41527000: system.cpu: Ins: 6306136064, 177e00000 @ PE 15
41527000: global: Predictor bit: 0	 Opcode: 7
41527000: global: CGRA: NOOP.Execute()
41527000: global: Distance is: 0
41527000: system.cpu: Ins: 6306136064, 177e00000 @ PE 16
41527000: global: Predictor bit: 0	 Opcode: 7
41527000: global: CGRA: NOOP.Execute()
41527000: global: Distance is: 0
41527000: system.cpu: Ins: 6306136064, 177e00000 @ PE 17
41527000: global: Predictor bit: 0	 Opcode: 7
41527000: global: CGRA: NOOP.Execute()
41527000: global: Distance is: 0
41527000: system.cpu: Ins: 6306136064, 177e00000 @ PE 18
41527000: global: Predictor bit: 0	 Opcode: 7
41527000: global: CGRA: NOOP.Execute()
41527000: global: Distance is: 0
41527000: system.cpu: Ins: 6306136064, 177e00000 @ PE 19
41527000: global: Predictor bit: 0	 Opcode: 7
41527000: global: CGRA: NOOP.Execute()
41527000: global: Distance is: 0
41527000: system.cpu: Ins: 6306136064, 177e00000 @ PE 20
41527000: global: Predictor bit: 0	 Opcode: 7
41527000: global: CGRA: NOOP.Execute()
41527000: global: Distance is: 0
41527000: system.cpu: Ins: 6306136064, 177e00000 @ PE 21
41527000: global: Predictor bit: 0	 Opcode: 7
41527000: global: CGRA: NOOP.Execute()
41527000: global: Distance is: 0
41527000: system.cpu: Ins: 6306136064, 177e00000 @ PE 22
41527000: global: Predictor bit: 0	 Opcode: 7
41527000: global: CGRA: NOOP.Execute()
41527000: global: Distance is: 0
41527000: system.cpu: Ins: 6306136064, 177e00000 @ PE 23
41527000: global: Predictor bit: 0	 Opcode: 7
41527000: global: CGRA: NOOP.Execute()
41527000: global: Distance is: 0
41527000: system.cpu: Ins: 6306136064, 177e00000 @ PE 24
41527000: global: Predictor bit: 0	 Opcode: 7
41527000: global: CGRA: NOOP.Execute()
41527000: global: Distance is: 0
41527000: system.cpu: Ins: 6306136064, 177e00000 @ PE 25
41527000: global: Predictor bit: 0	 Opcode: 7
41527000: global: CGRA: NOOP.Execute()
41527000: global: Distance is: 0
41527000: system.cpu: Ins: 6306136064, 177e00000 @ PE 26
41527000: global: Predictor bit: 0	 Opcode: 7
41527000: global: CGRA: NOOP.Execute()
41527000: global: Distance is: 0
41527000: system.cpu: Ins: 6306136064, 177e00000 @ PE 27
41527000: global: Predictor bit: 0	 Opcode: 7
41527000: global: CGRA: NOOP.Execute()
41527000: global: Distance is: 0
41527000: system.cpu: Ins: 6306136064, 177e00000 @ PE 28
41527000: global: Predictor bit: 0	 Opcode: 7
41527000: global: CGRA: NOOP.Execute()
41527000: global: Distance is: 0
41527000: system.cpu: Ins: 6306136064, 177e00000 @ PE 29
41527000: global: Predictor bit: 0	 Opcode: 7
41527000: global: CGRA: NOOP.Execute()
41527000: global: Distance is: 0
41527000: system.cpu: Ins: 6306136064, 177e00000 @ PE 30
41527000: global: Predictor bit: 0	 Opcode: 7
41527000: global: CGRA: NOOP.Execute()
41527000: global: Distance is: 0
41527000: system.cpu: Ins: 6306136064, 177e00000 @ PE 31
41527000: global: Predictor bit: 0	 Opcode: 7
41527000: global: CGRA: NOOP.Execute()
41527000: global: Distance is: 0
41527000: system.cpu: Ins: 6306136064, 177e00000 @ PE 32
41527000: global: Predictor bit: 0	 Opcode: 7
41527000: global: CGRA: NOOP.Execute()
41527000: global: Distance is: 0
41527000: system.cpu: Ins: 6306136064, 177e00000 @ PE 33
41527000: global: Predictor bit: 0	 Opcode: 7
41527000: global: CGRA: NOOP.Execute()
41527000: global: Distance is: 0
41527000: system.cpu: Ins: 6306136064, 177e00000 @ PE 34
41527000: global: Predictor bit: 0	 Opcode: 7
41527000: global: CGRA: NOOP.Execute()
41527000: global: Distance is: 0
41527000: system.cpu: Ins: 6306136064, 177e00000 @ PE 35
41527000: global: Predictor bit: 0	 Opcode: 7
41527000: global: CGRA: NOOP.Execute()
41527000: global: Distance is: 0
41527000: system.cpu: Ins: 6306136064, 177e00000 @ PE 36
41527000: global: Predictor bit: 0	 Opcode: 7
41527000: global: CGRA: NOOP.Execute()
41527000: global: Distance is: 0
41527000: system.cpu: Ins: 6306136064, 177e00000 @ PE 37
41527000: global: Predictor bit: 0	 Opcode: 7
41527000: global: CGRA: NOOP.Execute()
41527000: global: Distance is: 0
41527000: system.cpu: Ins: 6306136064, 177e00000 @ PE 38
41527000: global: Predictor bit: 0	 Opcode: 7
41527000: global: CGRA: NOOP.Execute()
41527000: global: Distance is: 0
41527000: system.cpu: Ins: 6306136064, 177e00000 @ PE 39
41527000: global: Predictor bit: 0	 Opcode: 7
41527000: global: CGRA: NOOP.Execute()
41527000: global: Distance is: 0
41527000: system.cpu: Ins: 6306136064, 177e00000 @ PE 40
41527000: global: Predictor bit: 0	 Opcode: 7
41527000: global: CGRA: NOOP.Execute()
41527000: global: Distance is: 0
41527000: system.cpu: Ins: 6306136064, 177e00000 @ PE 41
41527000: global: Predictor bit: 0	 Opcode: 7
41527000: global: CGRA: NOOP.Execute()
41527000: global: Distance is: 0
41527000: system.cpu: Ins: 6306136064, 177e00000 @ PE 42
41527000: global: Predictor bit: 0	 Opcode: 7
41527000: global: CGRA: NOOP.Execute()
41527000: global: Distance is: 0
41527000: system.cpu: Ins: 6306136064, 177e00000 @ PE 43
41527000: global: Predictor bit: 0	 Opcode: 7
41527000: global: CGRA: NOOP.Execute()
41527000: global: Distance is: 0
41527000: system.cpu: Ins: 6306136064, 177e00000 @ PE 44
41527000: global: Predictor bit: 0	 Opcode: 7
41527000: global: CGRA: NOOP.Execute()
41527000: global: Distance is: 0
41527000: system.cpu: Ins: 6306136064, 177e00000 @ PE 45
41527000: global: Predictor bit: 0	 Opcode: 7
41527000: global: CGRA: NOOP.Execute()
41527000: global: Distance is: 0
41527000: system.cpu: Ins: 6306136064, 177e00000 @ PE 46
41527000: global: Predictor bit: 0	 Opcode: 7
41527000: global: CGRA: NOOP.Execute()
41527000: global: Distance is: 0
41527000: system.cpu: Ins: 6306136064, 177e00000 @ PE 47
41527000: global: Predictor bit: 0	 Opcode: 7
41527000: global: CGRA: NOOP.Execute()
41527000: global: Distance is: 0
41527000: system.cpu: Ins: 6306136064, 177e00000 @ PE 48
41527000: global: Predictor bit: 0	 Opcode: 7
41527000: global: CGRA: NOOP.Execute()
41527000: global: Distance is: 0
41527000: system.cpu: Ins: 6306136064, 177e00000 @ PE 49
41527000: global: Predictor bit: 0	 Opcode: 7
41527000: global: CGRA: NOOP.Execute()
41527000: global: Distance is: 0
41527000: system.cpu: Ins: 6306136064, 177e00000 @ PE 50
41527000: global: Predictor bit: 0	 Opcode: 7
41527000: global: CGRA: NOOP.Execute()
41527000: global: Distance is: 0
41527000: system.cpu: Ins: 6306136064, 177e00000 @ PE 51
41527000: global: Predictor bit: 0	 Opcode: 7
41527000: global: CGRA: NOOP.Execute()
41527000: global: Distance is: 0
41527000: system.cpu: Ins: 6306136064, 177e00000 @ PE 52
41527000: global: Predictor bit: 0	 Opcode: 7
41527000: global: CGRA: NOOP.Execute()
41527000: global: Distance is: 0
41527000: system.cpu: Ins: 6306136064, 177e00000 @ PE 53
41527000: global: Predictor bit: 0	 Opcode: 7
41527000: global: CGRA: NOOP.Execute()
41527000: global: Distance is: 0
41527000: system.cpu: Ins: 6306136064, 177e00000 @ PE 54
41527000: global: Predictor bit: 0	 Opcode: 7
41527000: global: CGRA: NOOP.Execute()
41527000: global: Distance is: 0
41527000: system.cpu: Ins: 6306136064, 177e00000 @ PE 55
41527000: global: Predictor bit: 0	 Opcode: 7
41527000: global: CGRA: NOOP.Execute()
41527000: global: Distance is: 0
41527000: system.cpu: Ins: 6306136064, 177e00000 @ PE 56
41527000: global: Predictor bit: 0	 Opcode: 7
41527000: global: CGRA: NOOP.Execute()
41527000: global: Distance is: 0
41527000: system.cpu: Ins: 6306136064, 177e00000 @ PE 57
41527000: global: Predictor bit: 0	 Opcode: 7
41527000: global: CGRA: NOOP.Execute()
41527000: global: Distance is: 0
41527000: system.cpu: Ins: 6306136064, 177e00000 @ PE 58
41527000: global: Predictor bit: 0	 Opcode: 7
41527000: global: CGRA: NOOP.Execute()
41527000: global: Distance is: 0
41527000: system.cpu: Ins: 6306136064, 177e00000 @ PE 59
41527000: global: Predictor bit: 0	 Opcode: 7
41527000: global: CGRA: NOOP.Execute()
41527000: global: Distance is: 0
41527000: system.cpu: Ins: 6306136064, 177e00000 @ PE 60
41527000: global: Predictor bit: 0	 Opcode: 7
41527000: global: CGRA: NOOP.Execute()
41527000: global: Distance is: 0
41527000: system.cpu: Ins: 6306136064, 177e00000 @ PE 61
41527000: global: Predictor bit: 0	 Opcode: 7
41527000: global: CGRA: NOOP.Execute()
41527000: global: Distance is: 0
41527000: system.cpu: Ins: 6306136064, 177e00000 @ PE 62
41527000: global: Predictor bit: 0	 Opcode: 7
41527000: global: CGRA: NOOP.Execute()
41527000: global: Distance is: 0
41527000: system.cpu: Ins: 6306136064, 177e00000 @ PE 63
41527000: global: Predictor bit: 0	 Opcode: 7
41527000: global: CGRA: NOOP.Execute()
41527000: global: Distance is: 0

************* MEM READ *************
Row: 0 - address: 632384 - data: 30
41527000: system.cpu: CGRA advanceTime complete.
41527000: system.cpu: *******IN ADVANCE PC******
41527000: system.cpu: build/ARM/cpu/atomiccgra/atomiccgra.cc,CGRA_advancePC,1759,PC:a5470
41527000: system.cpu: Passed Complete Drain().
41527000: system.cpu: Make latency status=1.
41527000: system.cpu: Inside status idle.
41527000: system.cpu: Exiting schedule events
41527000: system.cpu: We are here after Execution
41527500: system.cpu: Inside CGRA Execution else statement.
[...]
41584000: system.cpu: Ins: 6306136064, 177e00000 @ PE 24
41584000: global: Predictor bit: 0	 Opcode: 7
41584000: global: CGRA: NOOP.Execute()
41584000: global: Distance is: 0
41584000: system.cpu: Ins: 6306136064, 177e00000 @ PE 25
41584000: global: Predictor bit: 0	 Opcode: 7
41584000: global: CGRA: NOOP.Execute()
41584000: global: Distance is: 0
41584000: system.cpu: Ins: 6306136064, 177e00000 @ PE 26
41584000: global: Predictor bit: 0	 Opcode: 7
41584000: global: CGRA: NOOP.Execute()
41584000: global: Distance is: 0
41584000: system.cpu: Ins: 6306136064, 177e00000 @ PE 27
41584000: global: Predictor bit: 0	 Opcode: 7
41584000: global: CGRA: NOOP.Execute()
41584000: global: Distance is: 0
41584000: system.cpu: Ins: 6306136064, 177e00000 @ PE 28
41584000: global: Predictor bit: 0	 Opcode: 7
41584000: global: CGRA: NOOP.Execute()
41584000: global: Distance is: 0
41584000: system.cpu: Ins: 6306136064, 177e00000 @ PE 29
41584000: global: Predictor bit: 0	 Opcode: 7
41584000: global: CGRA: NOOP.Execute()
41584000: global: Distance is: 0
41584000: system.cpu: Ins: 6306136064, 177e00000 @ PE 30
41584000: global: Predictor bit: 0	 Opcode: 7
41584000: global: CGRA: NOOP.Execute()
41584000: global: Distance is: 0
41584000: system.cpu: Ins: 6306136064, 177e00000 @ PE 31
41584000: global: Predictor bit: 0	 Opcode: 7
41584000: global: CGRA: NOOP.Execute()
41584000: global: Distance is: 0
41584000: system.cpu: Ins: 6306136064, 177e00000 @ PE 32
41584000: global: Predictor bit: 0	 Opcode: 7
41584000: global: CGRA: NOOP.Execute()
41584000: global: Distance is: 0
41584000: system.cpu: Ins: 6306136064, 177e00000 @ PE 33
41584000: global: Predictor bit: 0	 Opcode: 7
41584000: global: CGRA: NOOP.Execute()
41584000: global: Distance is: 0
41584000: system.cpu: Ins: 6306136064, 177e00000 @ PE 34
41584000: global: Predictor bit: 0	 Opcode: 7
41584000: global: CGRA: NOOP.Execute()
41584000: global: Distance is: 0
41584000: system.cpu: Ins: 6306136064, 177e00000 @ PE 35
41584000: global: Predictor bit: 0	 Opcode: 7
41584000: global: CGRA: NOOP.Execute()
41584000: global: Distance is: 0
41584000: system.cpu: Ins: 6306136064, 177e00000 @ PE 36
41584000: global: Predictor bit: 0	 Opcode: 7
41584000: global: CGRA: NOOP.Execute()
41584000: global: Distance is: 0
41584000: system.cpu: Ins: 6306136064, 177e00000 @ PE 37
41584000: global: Predictor bit: 0	 Opcode: 7
41584000: global: CGRA: NOOP.Execute()
41584000: global: Distance is: 0
41584000: system.cpu: Ins: 6306136064, 177e00000 @ PE 38
41584000: global: Predictor bit: 0	 Opcode: 7
41584000: global: CGRA: NOOP.Execute()
41584000: global: Distance is: 0
41584000: system.cpu: Ins: 6306136064, 177e00000 @ PE 39
41584000: global: Predictor bit: 0	 Opcode: 7
41584000: global: CGRA: NOOP.Execute()
41584000: global: Distance is: 0
41584000: system.cpu: Ins: 6306136064, 177e00000 @ PE 40
41584000: global: Predictor bit: 0	 Opcode: 7
41584000: global: CGRA: NOOP.Execute()
41584000: global: Distance is: 0
41584000: system.cpu: Ins: 6306136064, 177e00000 @ PE 41
41584000: global: Predictor bit: 0	 Opcode: 7
41584000: global: CGRA: NOOP.Execute()
41584000: global: Distance is: 0
41584000: system.cpu: Ins: 6306136064, 177e00000 @ PE 42
41584000: global: Predictor bit: 0	 Opcode: 7
41584000: global: CGRA: NOOP.Execute()
41584000: global: Distance is: 0
41584000: system.cpu: Ins: 6306136064, 177e00000 @ PE 43
41584000: global: Predictor bit: 0	 Opcode: 7
41584000: global: CGRA: NOOP.Execute()
41584000: global: Distance is: 0
41584000: system.cpu: Ins: 6306136064, 177e00000 @ PE 44
41584000: global: Predictor bit: 0	 Opcode: 7
41584000: global: CGRA: NOOP.Execute()
41584000: global: Distance is: 0
41584000: system.cpu: Ins: 6306136064, 177e00000 @ PE 45
41584000: global: Predictor bit: 0	 Opcode: 7
41584000: global: CGRA: NOOP.Execute()
41584000: global: Distance is: 0
41584000: system.cpu: Ins: 6306136064, 177e00000 @ PE 46
41584000: global: Predictor bit: 0	 Opcode: 7
41584000: global: CGRA: NOOP.Execute()
41584000: global: Distance is: 0
41584000: system.cpu: Ins: 6306136064, 177e00000 @ PE 47
41584000: global: Predictor bit: 0	 Opcode: 7
41584000: global: CGRA: NOOP.Execute()
41584000: global: Distance is: 0
41584000: system.cpu: Ins: 6306136064, 177e00000 @ PE 48
41584000: global: Predictor bit: 0	 Opcode: 7
41584000: global: CGRA: NOOP.Execute()
41584000: global: Distance is: 0
41584000: system.cpu: Ins: 6306136064, 177e00000 @ PE 49
41584000: global: Predictor bit: 0	 Opcode: 7
41584000: global: CGRA: NOOP.Execute()
41584000: global: Distance is: 0
41584000: system.cpu: Ins: 6306136064, 177e00000 @ PE 50
41584000: global: Predictor bit: 0	 Opcode: 7
41584000: global: CGRA: NOOP.Execute()
41584000: global: Distance is: 0
41584000: system.cpu: Ins: 6306136064, 177e00000 @ PE 51
41584000: global: Predictor bit: 0	 Opcode: 7
41584000: global: CGRA: NOOP.Execute()
41584000: global: Distance is: 0
41584000: system.cpu: Ins: 6306136064, 177e00000 @ PE 52
41584000: global: Predictor bit: 0	 Opcode: 7
41584000: global: CGRA: NOOP.Execute()
41584000: global: Distance is: 0
41584000: system.cpu: Ins: 6306136064, 177e00000 @ PE 53
41584000: global: Predictor bit: 0	 Opcode: 7
41584000: global: CGRA: NOOP.Execute()
41584000: global: Distance is: 0
41584000: system.cpu: Ins: 6306136064, 177e00000 @ PE 54
41584000: global: Predictor bit: 0	 Opcode: 7
41584000: global: CGRA: NOOP.Execute()
41584000: global: Distance is: 0
41584000: system.cpu: Ins: 6306136064, 177e00000 @ PE 55
41584000: global: Predictor bit: 0	 Opcode: 7
41584000: global: CGRA: NOOP.Execute()
41584000: global: Distance is: 0
41584000: system.cpu: Ins: 6306136064, 177e00000 @ PE 56
41584000: global: Predictor bit: 0	 Opcode: 7
41584000: global: CGRA: NOOP.Execute()
41584000: global: Distance is: 0
41584000: system.cpu: Ins: 6306136064, 177e00000 @ PE 57
41584000: global: Predictor bit: 0	 Opcode: 7
41584000: global: CGRA: NOOP.Execute()
41584000: global: Distance is: 0
41584000: system.cpu: Ins: 6306136064, 177e00000 @ PE 58
41584000: global: Predictor bit: 0	 Opcode: 7
41584000: global: CGRA: NOOP.Execute()
41584000: global: Distance is: 0
41584000: system.cpu: Ins: 6306136064, 177e00000 @ PE 59
41584000: global: Predictor bit: 0	 Opcode: 7
41584000: global: CGRA: NOOP.Execute()
41584000: global: Distance is: 0
41584000: system.cpu: Ins: 6306136064, 177e00000 @ PE 60
41584000: global: Predictor bit: 0	 Opcode: 7
41584000: global: CGRA: NOOP.Execute()
41584000: global: Distance is: 0
41584000: system.cpu: Ins: 6306136064, 177e00000 @ PE 61
41584000: global: Predictor bit: 0	 Opcode: 7
41584000: global: CGRA: NOOP.Execute()
41584000: global: Distance is: 0
41584000: system.cpu: Ins: 6306136064, 177e00000 @ PE 62
41584000: global: Predictor bit: 0	 Opcode: 7
41584000: global: CGRA: NOOP.Execute()
41584000: global: Distance is: 0
41584000: system.cpu: Ins: 6306136064, 177e00000 @ PE 63
41584000: global: Predictor bit: 0	 Opcode: 7
41584000: global: CGRA: NOOP.Execute()
41584000: global: Distance is: 0

************* MEM READ *************
Row: 0 - address: 632384 - data: 30
41584000: system.cpu: CGRA advanceTime complete.
41584000: system.cpu: *******IN ADVANCE PC******
41584000: system.cpu: build/ARM/cpu/atomiccgra/atomiccgra.cc,CGRA_advancePC,1759,PC:a4868
41584000: system.cpu: Passed Complete Drain().
41584000: system.cpu: Make latency status=1.
41584000: system.cpu: Inside status idle.
41584000: system.cpu: Exiting schedule events
41584000: system.cpu: We are here after Execution
41584500: system.cpu: Inside CGRA Execution else statement.
41584500: system.cpu: Inside CGRA_Execution block.
41584500: system.cpu: 
CALL IN NOW CGRA_Execution.
41584500: system.cpu: 

 ~~~~~~ CGRA_Execution @ numCycles = 239 ~~~~~~~
41584500: global: 
******** DB INPUT1 ReadAddress = 3************
41584500: system.cpu: Ins: 6053961732, 168d82004 @ PE 0
41584500: global: Predictor bit: 1	 Opcode: 6
41584500: global: 
Input1 = 632388	Input2 = 4
41584500: global: 
******** ADDRESS GENERATED IN THIS PE 632388************
41584500: global: 
*********Setting Address 9a644 ******
41584500: global: Distance is: 0
41584500: system.cpu: Ins: 4424994816, 107c01000 @ PE 1
41584500: global: Predictor bit: 0	 Opcode: 0
41584500: global: 
Input1 = 165	Input2 = 0
41584500: global: 
******** SUM IN THIS PE 165************
41584500: global: 
******** DB Output 165************
41584500: global: Distance is: 0
41584500: system.cpu: Ins: 6306136064, 177e00000 @ PE 2
41584500: global: Predictor bit: 0	 Opcode: 7
41584500: global: CGRA: NOOP.Execute()
41584500: global: Distance is: 0
41584500: system.cpu: Ins: 6306136064, 177e00000 @ PE 3
41584500: global: Predictor bit: 0	 Opcode: 7
41584500: global: CGRA: NOOP.Execute()
41584500: global: Distance is: 0
41584500: system.cpu: Ins: 6306136064, 177e00000 @ PE 4
41584500: global: Predictor bit: 0	 Opcode: 7
41584500: global: CGRA: NOOP.Execute()
41584500: global: Distance is: 0
41584500: system.cpu: Ins: 6306136064, 177e00000 @ PE 5
41584500: global: Predictor bit: 0	 Opcode: 7
41584500: global: CGRA: NOOP.Execute()
41584500: global: Distance is: 0
41584500: system.cpu: Ins: 6306136064, 177e00000 @ PE 6
41584500: global: Predictor bit: 0	 Opcode: 7
41584500: global: CGRA: NOOP.Execute()
41584500: global: Distance is: 0
41584500: system.cpu: Ins: 6306136064, 177e00000 @ PE 7
41584500: global: Predictor bit: 0	 Opcode: 7
41584500: global: CGRA: NOOP.Execute()
41584500: global: Distance is: 0
41584500: system.cpu: Ins: 6306136064, 177e00000 @ PE 8
41584500: global: Predictor bit: 0	 Opcode: 7
41584500: global: CGRA: NOOP.Execute()
41584500: global: Distance is: 0
41584500: system.cpu: Ins: 6306136064, 177e00000 @ PE 9
41584500: global: Predictor bit: 0	 Opcode: 7
41584500: global: CGRA: NOOP.Execute()
41584500: global: Distance is: 0
41584500: system.cpu: Ins: 6306136064, 177e00000 @ PE 10
41584500: global: Predictor bit: 0	 Opcode: 7
41584500: global: CGRA: NOOP.Execute()
41584500: global: Distance is: 0
41584500: system.cpu: Ins: 6306136064, 177e00000 @ PE 11
41584500: global: Predictor bit: 0	 Opcode: 7
41584500: global: CGRA: NOOP.Execute()
41584500: global: Distance is: 0
41584500: system.cpu: Ins: 6306136064, 177e00000 @ PE 12
41584500: global: Predictor bit: 0	 Opcode: 7
41584500: global: CGRA: NOOP.Execute()
41584500: global: Distance is: 0
41584500: system.cpu: Ins: 6306136064, 177e00000 @ PE 13
41584500: global: Predictor bit: 0	 Opcode: 7
41584500: global: CGRA: NOOP.Execute()
41584500: global: Distance is: 0
41584500: system.cpu: Ins: 6306136064, 177e00000 @ PE 14
41584500: global: Predictor bit: 0	 Opcode: 7
41584500: global: CGRA: NOOP.Execute()
41584500: global: Distance is: 0
41584500: system.cpu: Ins: 6306136064, 177e00000 @ PE 15
41584500: global: Predictor bit: 0	 Opcode: 7
41584500: global: CGRA: NOOP.Execute()
41584500: global: Distance is: 0
41584500: system.cpu: Ins: 6306136064, 177e00000 @ PE 16
41584500: global: Predictor bit: 0	 Opcode: 7
41584500: global: CGRA: NOOP.Execute()
41584500: global: Distance is: 0
41584500: system.cpu: Ins: 6306136064, 177e00000 @ PE 17
41584500: global: Predictor bit: 0	 Opcode: 7
41584500: global: CGRA: NOOP.Execute()
41584500: global: Distance is: 0
41584500: system.cpu: Ins: 6306136064, 177e00000 @ PE 18
41584500: global: Predictor bit: 0	 Opcode: 7
41584500: global: CGRA: NOOP.Execute()
41584500: global: Distance is: 0
41584500: system.cpu: Ins: 6306136064, 177e00000 @ PE 19
41584500: global: Predictor bit: 0	 Opcode: 7
41584500: global: CGRA: NOOP.Execute()
41584500: global: Distance is: 0
41584500: system.cpu: Ins: 6306136064, 177e00000 @ PE 20
41584500: global: Predictor bit: 0	 Opcode: 7
41584500: global: CGRA: NOOP.Execute()
41584500: global: Distance is: 0
41584500: system.cpu: Ins: 6306136064, 177e00000 @ PE 21
41584500: global: Predictor bit: 0	 Opcode: 7
41584500: global: CGRA: NOOP.Execute()
41584500: global: Distance is: 0
41584500: system.cpu: Ins: 6306136064, 177e00000 @ PE 22
41584500: global: Predictor bit: 0	 Opcode: 7
41584500: global: CGRA: NOOP.Execute()
41584500: global: Distance is: 0
41584500: system.cpu: Ins: 6306136064, 177e00000 @ PE 23
41584500: global: Predictor bit: 0	 Opcode: 7
41584500: global: CGRA: NOOP.Execute()
41584500: global: Distance is: 0
41584500: system.cpu: Ins: 6306136064, 177e00000 @ PE 24
41584500: global: Predictor bit: 0	 Opcode: 7
41584500: global: CGRA: NOOP.Execute()
41584500: global: Distance is: 0
41584500: system.cpu: Ins: 6306136064, 177e00000 @ PE 25
41584500: global: Predictor bit: 0	 Opcode: 7
41584500: global: CGRA: NOOP.Execute()
41584500: global: Distance is: 0
41584500: system.cpu: Ins: 6306136064, 177e00000 @ PE 26
41584500: global: Predictor bit: 0	 Opcode: 7
41584500: global: CGRA: NOOP.Execute()
41584500: global: Distance is: 0
41584500: system.cpu: Ins: 6306136064, 177e00000 @ PE 27
41584500: global: Predictor bit: 0	 Opcode: 7
41584500: global: CGRA: NOOP.Execute()
41584500: global: Distance is: 0
41584500: system.cpu: Ins: 6306136064, 177e00000 @ PE 28
41584500: global: Predictor bit: 0	 Opcode: 7
41584500: global: CGRA: NOOP.Execute()
41584500: global: Distance is: 0
41584500: system.cpu: Ins: 6306136064, 177e00000 @ PE 29
41584500: global: Predictor bit: 0	 Opcode: 7
41584500: global: CGRA: NOOP.Execute()
41584500: global: Distance is: 0
41584500: system.cpu: Ins: 6306136064, 177e00000 @ PE 30
41584500: global: Predictor bit: 0	 Opcode: 7
41584500: global: CGRA: NOOP.Execute()
41584500: global: Distance is: 0
41584500: system.cpu: Ins: 6306136064, 177e00000 @ PE 31
41584500: global: Predictor bit: 0	 Opcode: 7
41584500: global: CGRA: NOOP.Execute()
41584500: global: Distance is: 0
41584500: system.cpu: Ins: 6306136064, 177e00000 @ PE 32
41584500: global: Predictor bit: 0	 Opcode: 7
41584500: global: CGRA: NOOP.Execute()
41584500: global: Distance is: 0
41584500: system.cpu: Ins: 6306136064, 177e00000 @ PE 33
41584500: global: Predictor bit: 0	 Opcode: 7
41584500: global: CGRA: NOOP.Execute()
41584500: global: Distance is: 0
41584500: system.cpu: Ins: 6306136064, 177e00000 @ PE 34
41584500: global: Predictor bit: 0	 Opcode: 7
41584500: global: CGRA: NOOP.Execute()
41584500: global: Distance is: 0
41584500: system.cpu: Ins: 6306136064, 177e00000 @ PE 35
41584500: global: Predictor bit: 0	 Opcode: 7
41584500: global: CGRA: NOOP.Execute()
41584500: global: Distance is: 0
41584500: system.cpu: Ins: 6306136064, 177e00000 @ PE 36
41584500: global: Predictor bit: 0	 Opcode: 7
41584500: global: CGRA: NOOP.Execute()
41584500: global: Distance is: 0
41584500: system.cpu: Ins: 6306136064, 177e00000 @ PE 37
41584500: global: Predictor bit: 0	 Opcode: 7
41584500: global: CGRA: NOOP.Execute()
41584500: global: Distance is: 0
41584500: system.cpu: Ins: 6306136064, 177e00000 @ PE 38
41584500: global: Predictor bit: 0	 Opcode: 7
41584500: global: CGRA: NOOP.Execute()
41584500: global: Distance is: 0
41584500: system.cpu: Ins: 6306136064, 177e00000 @ PE 39
41584500: global: Predictor bit: 0	 Opcode: 7
41584500: global: CGRA: NOOP.Execute()
41584500: global: Distance is: 0
41584500: system.cpu: Ins: 6306136064, 177e00000 @ PE 40
41584500: global: Predictor bit: 0	 Opcode: 7
41584500: global: CGRA: NOOP.Execute()
41584500: global: Distance is: 0
41584500: system.cpu: Ins: 6306136064, 177e00000 @ PE 41
41584500: global: Predictor bit: 0	 Opcode: 7
41584500: global: CGRA: NOOP.Execute()
41584500: global: Distance is: 0
41584500: system.cpu: Ins: 6306136064, 177e00000 @ PE 42
41584500: global: Predictor bit: 0	 Opcode: 7
41584500: global: CGRA: NOOP.Execute()
41584500: global: Distance is: 0
41584500: system.cpu: Ins: 6306136064, 177e00000 @ PE 43
41584500: global: Predictor bit: 0	 Opcode: 7
41584500: global: CGRA: NOOP.Execute()
41584500: global: Distance is: 0
41584500: system.cpu: Ins: 6306136064, 177e00000 @ PE 44
41584500: global: Predictor bit: 0	 Opcode: 7
41584500: global: CGRA: NOOP.Execute()
41584500: global: Distance is: 0
41584500: system.cpu: Ins: 6306136064, 177e00000 @ PE 45
41584500: global: Predictor bit: 0	 Opcode: 7
41584500: global: CGRA: NOOP.Execute()
41584500: global: Distance is: 0
41584500: system.cpu: Ins: 6306136064, 177e00000 @ PE 46
41584500: global: Predictor bit: 0	 Opcode: 7
41584500: global: CGRA: NOOP.Execute()
41584500: global: Distance is: 0
41584500: system.cpu: Ins: 6306136064, 177e00000 @ PE 47
41584500: global: Predictor bit: 0	 Opcode: 7
41584500: global: CGRA: NOOP.Execute()
41584500: global: Distance is: 0
41584500: system.cpu: Ins: 6306136064, 177e00000 @ PE 48
41584500: global: Predictor bit: 0	 Opcode: 7
41584500: global: CGRA: NOOP.Execute()
41584500: global: Distance is: 0
41584500: system.cpu: Ins: 6306136064, 177e00000 @ PE 49
41584500: global: Predictor bit: 0	 Opcode: 7
41584500: global: CGRA: NOOP.Execute()
41584500: global: Distance is: 0
41584500: system.cpu: Ins: 6306136064, 177e00000 @ PE 50
41584500: global: Predictor bit: 0	 Opcode: 7
41584500: global: CGRA: NOOP.Execute()
41584500: global: Distance is: 0
41584500: system.cpu: Ins: 6306136064, 177e00000 @ PE 51
41584500: global: Predictor bit: 0	 Opcode: 7
41584500: global: CGRA: NOOP.Execute()
41584500: global: Distance is: 0
41584500: system.cpu: Ins: 6306136064, 177e00000 @ PE 52
41584500: global: Predictor bit: 0	 Opcode: 7
41584500: global: CGRA: NOOP.Execute()
41584500: global: Distance is: 0
41584500: system.cpu: Ins: 6306136064, 177e00000 @ PE 53
41584500: global: Predictor bit: 0	 Opcode: 7
41584500: global: CGRA: NOOP.Execute()
41584500: global: Distance is: 0
41584500: system.cpu: Ins: 6306136064, 177e00000 @ PE 54
41584500: global: Predictor bit: 0	 Opcode: 7
41584500: global: CGRA: NOOP.Execute()
41584500: global: Distance is: 0
41584500: system.cpu: Ins: 6306136064, 177e00000 @ PE 55
41584500: global: Predictor bit: 0	 Opcode: 7
41584500: global: CGRA: NOOP.Execute()
41584500: global: Distance is: 0
41584500: system.cpu: Ins: 6306136064, 177e00000 @ PE 56
41584500: global: Predictor bit: 0	 Opcode: 7
41584500: global: CGRA: NOOP.Execute()
41584500: global: Distance is: 0
41584500: system.cpu: Ins: 6306136064, 177e00000 @ PE 57
41584500: global: Predictor bit: 0	 Opcode: 7
41584500: global: CGRA: NOOP.Execute()
41584500: global: Distance is: 0
41584500: system.cpu: Ins: 6306136064, 177e00000 @ PE 58
41584500: global: Predictor bit: 0	 Opcode: 7
41584500: global: CGRA: NOOP.Execute()
41584500: global: Distance is: 0
41584500: system.cpu: Ins: 6306136064, 177e00000 @ PE 59
41584500: global: Predictor bit: 0	 Opcode: 7
41584500: global: CGRA: NOOP.Execute()
41584500: global: Distance is: 0
41584500: system.cpu: Ins: 6306136064, 177e00000 @ PE 60
41584500: global: Predictor bit: 0	 Opcode: 7
41584500: global: CGRA: NOOP.Execute()
41584500: global: Distance is: 0
41584500: system.cpu: Ins: 6306136064, 177e00000 @ PE 61
41584500: global: Predictor bit: 0	 Opcode: 7
41584500: global: CGRA: NOOP.Execute()
41584500: global: Distance is: 0
41584500: system.cpu: Ins: 6306136064, 177e00000 @ PE 62
41584500: global: Predictor bit: 0	 Opcode: 7
41584500: global: CGRA: NOOP.Execute()
41584500: global: Distance is: 0
41584500: system.cpu: Ins: 6306136064, 177e00000 @ PE 63
41584500: global: Predictor bit: 0	 Opcode: 7
41584500: global: CGRA: NOOP.Execute()
41584500: global: Distance is: 0
41584500: system.cpu: In Memwrite with membus: 1
41584500: system.cpu: In writing INT 165	 to address:9a644	 -- &Data: 0x5608e630a380	 and uint: 
41584500: system.cpu: CGRA advanceTime complete.
41584500: system.cpu: *******IN ADVANCE PC******
41584500: system.cpu: build/ARM/cpu/atomiccgra/atomiccgra.cc,CGRA_advancePC,1759,PC:a4a68
41584500: system.cpu: Passed Complete Drain().
41584500: system.cpu: Make latency status=1.
41584500: system.cpu: Inside status idle.
41584500: system.cpu: Exiting schedule events
41584500: system.cpu: We are here after Execution
41585000: system.cpu: Inside CGRA Execution else statement.
iterations:30	, c:165, result:30

deleting cgra
Exiting @ tick 43854000 because exiting with last active thread context
