/home/local/ASUAD/quoclon1/ccf2_git/CCF-20.04/benchmarks/math
116
Simulation for CGRA for 4 x 4 with 4 registers per PE
CPU frequency @ 2GHz
CGRA frequency @ 0.7GHz
CGRA4x4R4torus
Global frequency set at 1000000000000 ticks per second
warn: DRAM device capacity (8192 Mbytes) does not match the address range assigned (512 Mbytes)
      0: system.cpu: initializing CGRA Dcache ports
      0: system.cpu: Setting Up CGRA
      0: system.cpu: CGRA instantiated
0: system.remote_gdb: listening for remote gdb on port 7000
gem5 Simulator System.  http://gem5.org
gem5 is copyrighted software; use the --copyright option for details.

gem5 version 20.1.0.4
gem5 compiled Jun 28 2021 23:30:27
gem5 started Jun 29 2021 15:01:17
gem5 executing on en4181851l, pid 1062035
command line: /home/local/ASUAD/quoclon1/ccf2_git/CCF-20.04/gem5/build/ARM/gem5.opt --debug-flags=CGRA,CGRA_Detailed,CGRA_Execute /home/local/ASUAD/quoclon1/ccf2_git/CCF-20.04/gem5/configs/example/se.py -n 1 --cpu-type CGRA4x4R4torus -c ./add_small -o 116

**** REAL SIMULATION ****
warn: membus.slave is deprecated. `slave` is now called `cpu_side_ports`
warn: membus.slave is deprecated. `slave` is now called `cpu_side_ports`
warn: membus.slave is deprecated. `slave` is now called `cpu_side_ports`
warn: membus.slave is deprecated. `slave` is now called `cpu_side_ports`
warn: membus.slave is deprecated. `slave` is now called `cpu_side_ports`
warn: membus.master is deprecated. `master` is now called `mem_side_ports`
warn: No dot file generated. Please install pydot to generate the dot file and pdf.
info: Entering event queue @ 0.  Starting simulation...
info: Increasing stack size by one page.
warn: ignoring syscall mprotect(...)
createCGRA
checkTotalLoops
from cgra.c Initialize Parameters

**********EPISIZE 64*********

**********PROSIZE 576*********

**********KERNSIZE 32*********

******SIZE OF UNSIGNED LONG4*****

******SIZE OF UNSIGNED LONG LONG8*****

*******************before while loop**************

************XDIM and YDim are 4, 4
Loop Count: -2
From FILE: PROLOGPC= a48e0, EPILOGPC=a46d8,  KernelPC=a5ae8
from cgra.c Initialize Parameters

**********EPISIZE 64*********

**********PROSIZE 384*********

**********KERNSIZE 32*********

******SIZE OF UNSIGNED LONG4*****

******SIZE OF UNSIGNED LONG LONG8*****

*******************before while loop**************

************XDIM and YDim are 4, 4
Loop Count: -2
From FILE: PROLOGPC= a5f38, EPILOGPC=a5d30,  KernelPC=a6b40
from cgra.c Initialize Parameters

**********EPISIZE 64*********

**********PROSIZE 384*********

**********KERNSIZE 32*********

******SIZE OF UNSIGNED LONG4*****

******SIZE OF UNSIGNED LONG LONG8*****

*******************before while loop**************

************XDIM and YDim are 4, 4
Loop Count: -2
From FILE: PROLOGPC= a6e50, EPILOGPC=a6c48,  KernelPC=a7a58
from cgra.c Initialize Parameters

**********EPISIZE 64*********

**********PROSIZE 384*********

**********KERNSIZE 32*********

******SIZE OF UNSIGNED LONG4*****

******SIZE OF UNSIGNED LONG LONG8*****

*******************before while loop**************

************XDIM and YDim are 4, 4
Loop Count: -2
From FILE: PROLOGPC= a7d68, EPILOGPC=a7b60,  KernelPC=a8970
Main thread calling CGRA thread...
Mode = 1
Bin to dec mode
Len = 16


accelerateOnCGRA
configureCGRA

loopno = 3
Core will execute loop 3 on CGRA


runOnCGRA
111762000: system.cpu: ************************Setting UP the CGRA************
111762000: system.cpu: Inside Setup_CGRA_Execution
111762000: system.cpu: CGRA: OLD PC: 1110c
111762000: system.cpu: Loop count is -2
111762000: system.cpu: Epilog Length is 4
111762000: system.cpu: LiveVar_St_Epilog Length is 1
111762000: system.cpu: II is 2
111762000: system.cpu: Epilog count is  1
111762000: system.cpu: Prolog count is  1
111762000: system.cpu: Kernel Counter is  -2
111762000: system.cpu: Prolog PC is a6e50
,111762000: system.cpu: Kernel PC is a7a58
111762000: system.cpu: Epilog PC is a6c48
111762000: system.cpu: CGRA PARAMETERS: PROLOG= 24, EPILOG=4, II=2, KernelCounter=-2
111762000: system.cpu: CGRA PARAMETERS: PROLOG= 24, EPILOG=4, II=2, KernelCounter=-2
111762000: system.cpu: CGRA PARAMETERS: PROLOGPC= a6e50, EPILOGPC=a6c48,  KernelPC=a7a58
111762000: system.cpu: CGRA PARAMETERS: PROLOGPC= a6e50, EPILOGPC=a6c48,  KernelPC=a7a58
111762000: system.cpu: CGRA PC : a6e50
111762000: system.cpu: **********************CGRA Execution is started**************************** 
111762000: system.cpu: 
Executing 1 CGRA Cycle.
111762000: system.cpu: 
Exiting 1 CGRA Cycle.
111762500: system.cpu: Inside CGRA Execution else statement.
111762500: system.cpu: Inside CGRA_Execution block.
111762500: system.cpu: 
CALL IN NOW CGRA_Execution.
111762500: system.cpu: 

 ~~~~~~ CGRA_Execution @ numCycles = 1 ~~~~~~~
111762500: global: 
******** DB INPUT2 ReadAddress = 0************
111762500: global: 
******** DB INPUT2 ReadAddress = 0************
111762500: global: 
******** DB INPUT2 ReadAddress = 0************
111762500: global: 
******** DB INPUT2 ReadAddress = 0************
111762500: global: 
******** DB INPUT2 ReadAddress = 0************
111762500: global: 
******** DB INPUT2 ReadAddress = 0************
111762500: global: 
******** DB INPUT2 ReadAddress = 0************
111762500: global: 
******** DB INPUT2 ReadAddress = 0************
111762500: global: 
******** DB INPUT2 ReadAddress = 0************
111762500: global: 
******** DB INPUT2 ReadAddress = 0************
111762500: global: 
******** DB INPUT2 ReadAddress = 0************
111762500: global: 
******** DB INPUT2 ReadAddress = 0************
111762500: global: 
******** DB INPUT2 ReadAddress = 0************
111762500: global: 
******** DB INPUT2 ReadAddress = 0************
111762500: global: 
******** DB INPUT2 ReadAddress = 0************
111762500: global: 
******** DB INPUT2 ReadAddress = 0************
111762500: system.cpu: Ins: 4529864704, 10e004000 @ PE 0
111762500: global: Predictor bit: 1	 Opcode: 0
111762500: global: 
Input1 = 0	Input2 = 0
111762500: global: 
******** Setting Configuration as 0************
111762500: global: 
************** WE *****************
111762500: global: Distance is: 0
111762500: system.cpu: Ins: 4529864704, 10e004000 @ PE 1
111762500: global: Predictor bit: 1	 Opcode: 0
111762500: global: 
Input1 = 0	Input2 = 0
111762500: global: 
******** Setting Configuration as 0************
111762500: global: 
************** WE *****************
111762500: global: Distance is: 0
111762500: system.cpu: Ins: 4529864704, 10e004000 @ PE 2
111762500: global: Predictor bit: 1	 Opcode: 0
111762500: global: 
Input1 = 0	Input2 = 0
111762500: global: 
******** Setting Configuration as 0************
111762500: global: 
************** WE *****************
111762500: global: Distance is: 0
111762500: system.cpu: Ins: 4529864704, 10e004000 @ PE 3
111762500: global: Predictor bit: 1	 Opcode: 0
111762500: global: 
Input1 = 0	Input2 = 0
111762500: global: 
******** Setting Configuration as 0************
111762500: global: 
************** WE *****************
111762500: global: Distance is: 0
111762500: system.cpu: Ins: 4529864704, 10e004000 @ PE 4
111762500: global: Predictor bit: 1	 Opcode: 0
111762500: global: 
Input1 = 0	Input2 = 0
111762500: global: 
******** Setting Configuration as 0************
111762500: global: 
************** WE *****************
111762500: global: Distance is: 0
111762500: system.cpu: Ins: 4529864704, 10e004000 @ PE 5
111762500: global: Predictor bit: 1	 Opcode: 0
111762500: global: 
Input1 = 0	Input2 = 0
111762500: global: 
******** Setting Configuration as 0************
111762500: global: 
************** WE *****************
111762500: global: Distance is: 0
111762500: system.cpu: Ins: 4529864704, 10e004000 @ PE 6
111762500: global: Predictor bit: 1	 Opcode: 0
111762500: global: 
Input1 = 0	Input2 = 0
111762500: global: 
******** Setting Configuration as 0************
111762500: global: 
************** WE *****************
111762500: global: Distance is: 0
111762500: system.cpu: Ins: 4529864704, 10e004000 @ PE 7
111762500: global: Predictor bit: 1	 Opcode: 0
111762500: global: 
Input1 = 0	Input2 = 0
111762500: global: 
******** Setting Configuration as 0************
111762500: global: 
************** WE *****************
111762500: global: Distance is: 0
111762500: system.cpu: Ins: 4529864704, 10e004000 @ PE 8
111762500: global: Predictor bit: 1	 Opcode: 0
111762500: global: 
Input1 = 0	Input2 = 0
111762500: global: 
******** Setting Configuration as 0************
111762500: global: 
************** WE *****************
111762500: global: Distance is: 0
111762500: system.cpu: Ins: 4529864704, 10e004000 @ PE 9
111762500: global: Predictor bit: 1	 Opcode: 0
111762500: global: 
Input1 = 0	Input2 = 0
111762500: global: 
******** Setting Configuration as 0************
111762500: global: 
************** WE *****************
111762500: global: Distance is: 0
111762500: system.cpu: Ins: 4529864704, 10e004000 @ PE 10
111762500: global: Predictor bit: 1	 Opcode: 0
111762500: global: 
Input1 = 0	Input2 = 0
111762500: global: 
******** Setting Configuration as 0************
111762500: global: 
************** WE *****************
111762500: global: Distance is: 0
111762500: system.cpu: Ins: 4529864704, 10e004000 @ PE 11
111762500: global: Predictor bit: 1	 Opcode: 0
111762500: global: 
Input1 = 0	Input2 = 0
111762500: global: 
******** Setting Configuration as 0************
111762500: global: 
************** WE *****************
111762500: global: Distance is: 0
111762500: system.cpu: Ins: 4529864704, 10e004000 @ PE 12
111762500: global: Predictor bit: 1	 Opcode: 0
111762500: global: 
Input1 = 0	Input2 = 0
111762500: global: 
******** Setting Configuration as 0************
111762500: global: 
************** WE *****************
111762500: global: Distance is: 0
111762500: system.cpu: Ins: 4529864704, 10e004000 @ PE 13
111762500: global: Predictor bit: 1	 Opcode: 0
111762500: global: 
Input1 = 0	Input2 = 0
111762500: global: 
******** Setting Configuration as 0************
111762500: global: 
************** WE *****************
111762500: global: Distance is: 0
111762500: system.cpu: Ins: 4529864704, 10e004000 @ PE 14
111762500: global: Predictor bit: 1	 Opcode: 0
111762500: global: 
Input1 = 0	Input2 = 0
111762500: global: 
******** Setting Configuration as 0************
111762500: global: 
************** WE *****************
111762500: global: Distance is: 0
111762500: system.cpu: Ins: 4529864704, 10e004000 @ PE 15
111762500: global: Predictor bit: 1	 Opcode: 0
111762500: global: 
Input1 = 0	Input2 = 0
111762500: global: 
******** Setting Configuration as 0************
111762500: global: 
************** WE *****************
111762500: global: Distance is: 0
111762500: system.cpu: CGRA advanceTime complete.
111762500: system.cpu: *******IN ADVANCE PC******
111762500: system.cpu: build/ARM/cpu/atomiccgra/atomiccgra.cc,CGRA_advancePC,1759,PC:a6e50
111762500: system.cpu: Passed Complete Drain().
111762500: system.cpu: Make latency status=1.
111762500: system.cpu: Inside status idle.
111762500: system.cpu: Exiting schedule events
111762500: system.cpu: We are here after Execution
111763000: system.cpu: Inside CGRA Execution else statement.
111763000: system.cpu: Inside CGRA_Execution block.
111763000: system.cpu: 
CALL IN NOW CGRA_Execution.
111763000: system.cpu: 

 ~~~~~~ CGRA_Execution @ numCycles = 3 ~~~~~~~
111763000: global: 
******** DB INPUT2 ReadAddress = 0************
111763000: global: 
******** DB INPUT2 ReadAddress = 0************
111763000: system.cpu: Ins: 4798332928, 11e00c000 @ PE 0
111763000: global: Predictor bit: 1	 Opcode: 1
111763000: global: 
Input1 = 0	Input2 = 0
111763000: global: 
******** LDI IN THIS PE 0************
111763000: global: 
************** WE *****************
111763000: global: 
WRITE: REG NUMBER: 1 dist: 0
111763000: global: R0: 0	R1: 0	R2: 0	R3: 0
111763000: global: 
WRITE: FPREG NUMBER: 1 dist: 0
111763000: global: FPR0: 0	FPR1: 0	FPR2: 0	FPR3: 0
111763000: global: Writing output 0 to register 1
111763000: global: Distance is: 0
111763000: system.cpu: Ins: 6306136064, 177e00000 @ PE 1
111763000: global: Predictor bit: 0	 Opcode: 7
111763000: global: CGRA: NOOP.Execute()
111763000: global: Distance is: 0
111763000: system.cpu: Ins: 4798301760, 11e004640 @ PE 2
111763000: global: Predictor bit: 1	 Opcode: 1
111763000: global: 
Input1 = 1600	Input2 = 0
111763000: global: 
******** LDI IN THIS PE 1600************
111763000: global: 
************** WE *****************
111763000: global: 
WRITE: REG NUMBER: 0 dist: 0
111763000: global: R0: 1600	R1: 0	R2: 0	R3: 0
111763000: global: 
WRITE: FPREG NUMBER: 0 dist: 0
111763000: global: FPR0: 1600	FPR1: 0	FPR2: 0	FPR3: 0
111763000: global: Writing output 1600 to register 0
111763000: global: Distance is: 0
111763000: system.cpu: Ins: 6306136064, 177e00000 @ PE 3
111763000: global: Predictor bit: 0	 Opcode: 7
111763000: global: CGRA: NOOP.Execute()
111763000: global: Distance is: 0
111763000: system.cpu: Ins: 6306136064, 177e00000 @ PE 4
111763000: global: Predictor bit: 0	 Opcode: 7
111763000: global: CGRA: NOOP.Execute()
111763000: global: Distance is: 0
111763000: system.cpu: Ins: 6306136064, 177e00000 @ PE 5
111763000: global: Predictor bit: 0	 Opcode: 7
111763000: global: CGRA: NOOP.Execute()
111763000: global: Distance is: 0
111763000: system.cpu: Ins: 6306136064, 177e00000 @ PE 6
111763000: global: Predictor bit: 0	 Opcode: 7
111763000: global: CGRA: NOOP.Execute()
111763000: global: Distance is: 0
111763000: system.cpu: Ins: 6306136064, 177e00000 @ PE 7
111763000: global: Predictor bit: 0	 Opcode: 7
111763000: global: CGRA: NOOP.Execute()
111763000: global: Distance is: 0
111763000: system.cpu: Ins: 6306136064, 177e00000 @ PE 8
111763000: global: Predictor bit: 0	 Opcode: 7
111763000: global: CGRA: NOOP.Execute()
111763000: global: Distance is: 0
111763000: system.cpu: Ins: 6306136064, 177e00000 @ PE 9
111763000: global: Predictor bit: 0	 Opcode: 7
111763000: global: CGRA: NOOP.Execute()
111763000: global: Distance is: 0
111763000: system.cpu: Ins: 6306136064, 177e00000 @ PE 10
111763000: global: Predictor bit: 0	 Opcode: 7
111763000: global: CGRA: NOOP.Execute()
111763000: global: Distance is: 0
111763000: system.cpu: Ins: 6306136064, 177e00000 @ PE 11
111763000: global: Predictor bit: 0	 Opcode: 7
111763000: global: CGRA: NOOP.Execute()
111763000: global: Distance is: 0
111763000: system.cpu: Ins: 6306136064, 177e00000 @ PE 12
111763000: global: Predictor bit: 0	 Opcode: 7
111763000: global: CGRA: NOOP.Execute()
111763000: global: Distance is: 0
111763000: system.cpu: Ins: 6306136064, 177e00000 @ PE 13
111763000: global: Predictor bit: 0	 Opcode: 7
111763000: global: CGRA: NOOP.Execute()
111763000: global: Distance is: 0
111763000: system.cpu: Ins: 6306136064, 177e00000 @ PE 14
111763000: global: Predictor bit: 0	 Opcode: 7
111763000: global: CGRA: NOOP.Execute()
111763000: global: Distance is: 0
111763000: system.cpu: Ins: 6306136064, 177e00000 @ PE 15
111763000: global: Predictor bit: 0	 Opcode: 7
111763000: global: CGRA: NOOP.Execute()
111763000: global: Distance is: 0
111763000: system.cpu: CGRA advanceTime complete.
111763000: system.cpu: *******IN ADVANCE PC******
111763000: system.cpu: build/ARM/cpu/atomiccgra/atomiccgra.cc,CGRA_advancePC,1759,PC:a6ed0
111763000: system.cpu: Passed Complete Drain().
111763000: system.cpu: Make latency status=1.
111763000: system.cpu: Inside status idle.
111763000: system.cpu: Exiting schedule events
111763000: system.cpu: We are here after Execution
111763500: system.cpu: Inside CGRA Execution else statement.
111763500: system.cpu: Inside CGRA_Execution block.
111763500: system.cpu: 
CALL IN NOW CGRA_Execution.
111763500: system.cpu: 

 ~~~~~~ CGRA_Execution @ numCycles = 5 ~~~~~~~
111763500: global: 
******** DB INPUT2 ReadAddress = 0************
111763500: global: 
******** DB INPUT2 ReadAddress = 0************
111763500: system.cpu: Ins: 5066768384, 12e00c000 @ PE 0
111763500: global: Predictor bit: 1	 Opcode: 2
111763500: global: 
Input1 = 0	Input2 = 0
111763500: global: 
******** LDMI IN THIS PE 0************
111763500: global: 
************** WE *****************
111763500: global: 
WRITE: REG NUMBER: 1 dist: 0
111763500: global: R0: 0	R1: 0	R2: 0	R3: 0
111763500: global: 
WRITE: FPREG NUMBER: 1 dist: 0
111763500: global: FPR0: 0	FPR1: 0	FPR2: 0	FPR3: 0
111763500: global: Writing output 0 to register 1
111763500: global: Distance is: 0
111763500: system.cpu: Ins: 6306136064, 177e00000 @ PE 1
111763500: global: Predictor bit: 0	 Opcode: 7
111763500: global: CGRA: NOOP.Execute()
111763500: global: Distance is: 0
111763500: system.cpu: Ins: 5066735770, 12e00409a @ PE 2
111763500: global: Predictor bit: 1	 Opcode: 2
111763500: global: 
Input1 = 154	Input2 = 1600
111763500: global: 
******** LDMI IN THIS PE 154************
111763500: global: 
************** WE *****************
111763500: global: 
WRITE: REG NUMBER: 0 dist: 0
111763500: global: R0: 632384	R1: 0	R2: 0	R3: 0
111763500: global: 
WRITE: FPREG NUMBER: 0 dist: 0
111763500: global: FPR0: 632384	FPR1: 0	FPR2: 0	FPR3: 0
111763500: global: Writing output 632384 to register 0
111763500: global: Distance is: 0
111763500: system.cpu: Ins: 6306136064, 177e00000 @ PE 3
111763500: global: Predictor bit: 0	 Opcode: 7
111763500: global: CGRA: NOOP.Execute()
111763500: global: Distance is: 0
111763500: system.cpu: Ins: 6306136064, 177e00000 @ PE 4
111763500: global: Predictor bit: 0	 Opcode: 7
111763500: global: CGRA: NOOP.Execute()
111763500: global: Distance is: 0
111763500: system.cpu: Ins: 6306136064, 177e00000 @ PE 5
111763500: global: Predictor bit: 0	 Opcode: 7
111763500: global: CGRA: NOOP.Execute()
111763500: global: Distance is: 0
111763500: system.cpu: Ins: 6306136064, 177e00000 @ PE 6
111763500: global: Predictor bit: 0	 Opcode: 7
111763500: global: CGRA: NOOP.Execute()
111763500: global: Distance is: 0
111763500: system.cpu: Ins: 6306136064, 177e00000 @ PE 7
111763500: global: Predictor bit: 0	 Opcode: 7
111763500: global: CGRA: NOOP.Execute()
111763500: global: Distance is: 0
111763500: system.cpu: Ins: 6306136064, 177e00000 @ PE 8
111763500: global: Predictor bit: 0	 Opcode: 7
111763500: global: CGRA: NOOP.Execute()
111763500: global: Distance is: 0
111763500: system.cpu: Ins: 6306136064, 177e00000 @ PE 9
111763500: global: Predictor bit: 0	 Opcode: 7
111763500: global: CGRA: NOOP.Execute()
111763500: global: Distance is: 0
111763500: system.cpu: Ins: 6306136064, 177e00000 @ PE 10
111763500: global: Predictor bit: 0	 Opcode: 7
111763500: global: CGRA: NOOP.Execute()
111763500: global: Distance is: 0
111763500: system.cpu: Ins: 6306136064, 177e00000 @ PE 11
111763500: global: Predictor bit: 0	 Opcode: 7
111763500: global: CGRA: NOOP.Execute()
111763500: global: Distance is: 0
111763500: system.cpu: Ins: 6306136064, 177e00000 @ PE 12
111763500: global: Predictor bit: 0	 Opcode: 7
111763500: global: CGRA: NOOP.Execute()
111763500: global: Distance is: 0
111763500: system.cpu: Ins: 6306136064, 177e00000 @ PE 13
111763500: global: Predictor bit: 0	 Opcode: 7
111763500: global: CGRA: NOOP.Execute()
111763500: global: Distance is: 0
111763500: system.cpu: Ins: 6306136064, 177e00000 @ PE 14
111763500: global: Predictor bit: 0	 Opcode: 7
111763500: global: CGRA: NOOP.Execute()
111763500: global: Distance is: 0
111763500: system.cpu: Ins: 6306136064, 177e00000 @ PE 15
111763500: global: Predictor bit: 0	 Opcode: 7
111763500: global: CGRA: NOOP.Execute()
111763500: global: Distance is: 0
111763500: system.cpu: CGRA advanceTime complete.
111763500: system.cpu: *******IN ADVANCE PC******
111763500: system.cpu: build/ARM/cpu/atomiccgra/atomiccgra.cc,CGRA_advancePC,1759,PC:a6f50
111763500: system.cpu: Passed Complete Drain().
111763500: system.cpu: Make latency status=1.
111763500: system.cpu: Inside status idle.
111763500: system.cpu: Exiting schedule events
111763500: system.cpu: We are here after Execution
111764000: system.cpu: Inside CGRA Execution else statement.
111764000: system.cpu: Inside CGRA_Execution block.
111764000: system.cpu: 
CALL IN NOW CGRA_Execution.
111764000: system.cpu: 

 ~~~~~~ CGRA_Execution @ numCycles = 7 ~~~~~~~
111764000: global: 
******** DB INPUT2 ReadAddress = 0************
111764000: global: 
******** DB INPUT2 ReadAddress = 0************
111764000: global: 
******** DB INPUT1 ReadAddress = 0************
111764000: global: 
******** DB INPUT2 ReadAddress = 0************
111764000: global: 
******** DB INPUT1 ReadAddress = 0************
111764000: global: 
******** DB INPUT2 ReadAddress = 0************
111764000: global: 
******** DB INPUT1 ReadAddress = 0************
111764000: global: 
******** DB INPUT2 ReadAddress = 0************
111764000: global: 
******** DB INPUT1 ReadAddress = 0************
111764000: global: 
******** DB INPUT2 ReadAddress = 0************
111764000: global: 
******** DB INPUT1 ReadAddress = 0************
111764000: global: 
******** DB INPUT2 ReadAddress = 0************
111764000: global: 
******** DB INPUT1 ReadAddress = 0************
111764000: global: 
******** DB INPUT2 ReadAddress = 0************
111764000: global: 
******** DB INPUT1 ReadAddress = 0************
111764000: global: 
******** DB INPUT2 ReadAddress = 0************
111764000: global: 
******** DB INPUT1 ReadAddress = 0************
111764000: global: 
******** DB INPUT2 ReadAddress = 0************
111764000: global: 
******** DB INPUT1 ReadAddress = 0************
111764000: global: 
******** DB INPUT2 ReadAddress = 0************
111764000: global: 
******** DB INPUT1 ReadAddress = 0************
111764000: global: 
******** DB INPUT2 ReadAddress = 0************
111764000: system.cpu: Ins: 5335203840, 13e00c000 @ PE 0
111764000: global: Predictor bit: 1	 Opcode: 3
111764000: global: 
Input1 = 0	Input2 = 0
111764000: global: 
******** LDUI IN THIS PE 0************
111764000: global: 
************** WE *****************
111764000: global: 
WRITE: REG NUMBER: 1 dist: 0
111764000: global: R0: 0	R1: 0	R2: 0	R3: 0
111764000: global: 
WRITE: FPREG NUMBER: 1 dist: 0
111764000: global: FPR0: 0	FPR1: 0	FPR2: 0	FPR3: 0
111764000: global: Writing output 0 to register 1
111764000: global: Distance is: 0
111764000: system.cpu: Ins: 6306136064, 177e00000 @ PE 1
111764000: global: Predictor bit: 0	 Opcode: 7
111764000: global: CGRA: NOOP.Execute()
111764000: global: Distance is: 0
111764000: system.cpu: Ins: 5335171072, 13e004000 @ PE 2
111764000: global: Predictor bit: 1	 Opcode: 3
111764000: global: 
Input1 = 0	Input2 = 632384
111764000: global: 
******** LDUI IN THIS PE 0************
111764000: global: 
************** WE *****************
111764000: global: 
WRITE: REG NUMBER: 0 dist: 0
111764000: global: R0: 632384	R1: 0	R2: 0	R3: 0
111764000: global: 
WRITE: FPREG NUMBER: 0 dist: 0
111764000: global: FPR0: 632384	FPR1: 0	FPR2: 0	FPR3: 0
111764000: global: Writing output 632384 to register 0
111764000: global: Distance is: 0
111764000: system.cpu: Ins: 6306136064, 177e00000 @ PE 3
111764000: global: Predictor bit: 0	 Opcode: 7
111764000: global: CGRA: NOOP.Execute()
111764000: global: Distance is: 0
111764000: system.cpu: Ins: 6306136064, 177e00000 @ PE 4
111764000: global: Predictor bit: 0	 Opcode: 7
111764000: global: CGRA: NOOP.Execute()
111764000: global: Distance is: 0
111764000: system.cpu: Ins: 6306136064, 177e00000 @ PE 5
111764000: global: Predictor bit: 0	 Opcode: 7
111764000: global: CGRA: NOOP.Execute()
111764000: global: Distance is: 0
111764000: system.cpu: Ins: 0, 0 @ PE 6
111764000: global: Predictor bit: 0	 Opcode: 0
111764000: global: 
Input1 = 0	Input2 = 0
111764000: global: 
******** SUM IN THIS PE 0************
111764000: global: Distance is: 0
111764000: system.cpu: Ins: 0, 0 @ PE 7
111764000: global: Predictor bit: 0	 Opcode: 0
111764000: global: 
Input1 = 0	Input2 = 0
111764000: global: 
******** SUM IN THIS PE 0************
111764000: global: Distance is: 0
111764000: system.cpu: Ins: 0, 0 @ PE 8
111764000: global: Predictor bit: 0	 Opcode: 0
111764000: global: 
Input1 = 0	Input2 = 0
111764000: global: 
******** SUM IN THIS PE 0************
111764000: global: Distance is: 0
111764000: system.cpu: Ins: 0, 0 @ PE 9
111764000: global: Predictor bit: 0	 Opcode: 0
111764000: global: 
Input1 = 0	Input2 = 0
111764000: global: 
******** SUM IN THIS PE 0************
111764000: global: Distance is: 0
111764000: system.cpu: Ins: 0, 0 @ PE 10
111764000: global: Predictor bit: 0	 Opcode: 0
111764000: global: 
Input1 = 0	Input2 = 0
111764000: global: 
******** SUM IN THIS PE 0************
111764000: global: Distance is: 0
111764000: system.cpu: Ins: 0, 0 @ PE 11
111764000: global: Predictor bit: 0	 Opcode: 0
111764000: global: 
Input1 = 0	Input2 = 0
111764000: global: 
******** SUM IN THIS PE 0************
111764000: global: Distance is: 0
111764000: system.cpu: Ins: 0, 0 @ PE 12
111764000: global: Predictor bit: 0	 Opcode: 0
111764000: global: 
Input1 = 0	Input2 = 0
111764000: global: 
******** SUM IN THIS PE 0************
111764000: global: Distance is: 0
111764000: system.cpu: Ins: 0, 0 @ PE 13
111764000: global: Predictor bit: 0	 Opcode: 0
111764000: global: 
Input1 = 0	Input2 = 0
111764000: global: 
******** SUM IN THIS PE 0************
111764000: global: Distance is: 0
111764000: system.cpu: Ins: 0, 0 @ PE 14
111764000: global: Predictor bit: 0	 Opcode: 0
111764000: global: 
Input1 = 0	Input2 = 0
111764000: global: 
******** SUM IN THIS PE 0************
111764000: global: Distance is: 0
111764000: system.cpu: Ins: 0, 0 @ PE 15
111764000: global: Predictor bit: 0	 Opcode: 0
111764000: global: 
Input1 = 0	Input2 = 0
111764000: global: 
******** SUM IN THIS PE 0************
111764000: global: Distance is: 0
111764000: system.cpu: CGRA advanceTime complete.
111764000: system.cpu: *******IN ADVANCE PC******
111764000: system.cpu: build/ARM/cpu/atomiccgra/atomiccgra.cc,CGRA_advancePC,1759,PC:a6fd0
111764000: system.cpu: Passed Complete Drain().
111764000: system.cpu: Make latency status=1.
111764000: system.cpu: Inside status idle.
111764000: system.cpu: Exiting schedule events
111764000: system.cpu: We are here after Execution
111764500: system.cpu: Inside CGRA Execution else statement.
111764500: system.cpu: Inside CGRA_Execution block.
111764500: system.cpu: 
CALL IN NOW CGRA_Execution.
111764500: system.cpu: 

 ~~~~~~ CGRA_Execution @ numCycles = 9 ~~~~~~~
111764500: global: 
******** DB INPUT2 ReadAddress = 0************
111764500: global: 
******** DB INPUT1 ReadAddress = 0************
111764500: system.cpu: Ins: 4798365698, 11e014002 @ PE 0
111764500: global: Predictor bit: 1	 Opcode: 1
111764500: global: 
Input1 = 2	Input2 = 0
111764500: global: 
******** LDI IN THIS PE 2************
111764500: global: 
************** WE *****************
111764500: global: 
WRITE: REG NUMBER: 2 dist: 0
111764500: global: R0: 0	R1: 0	R2: 2	R3: 0
111764500: global: 
WRITE: FPREG NUMBER: 2 dist: 0
111764500: global: FPR0: 0	FPR1: 0	FPR2: 2	FPR3: 0
111764500: global: Writing output 2 to register 2
111764500: global: Distance is: 0
111764500: system.cpu: Ins: 6306136064, 177e00000 @ PE 1
111764500: global: Predictor bit: 0	 Opcode: 7
111764500: global: CGRA: NOOP.Execute()
111764500: global: Distance is: 0
111764500: system.cpu: Ins: 6052388868, 168c02004 @ PE 2
111764500: global: Predictor bit: 1	 Opcode: 6
111764500: global: 
Input1 = 632384	Input2 = 4
111764500: global: 
******** ADDRESS GENERATED IN THIS PE 632384************
111764500: global: 
*********Setting Address 9a640 ******
111764500: global: Distance is: 0
111764500: system.cpu: Ins: 6306136064, 177e00000 @ PE 3
111764500: global: Predictor bit: 0	 Opcode: 7
111764500: global: CGRA: NOOP.Execute()
111764500: global: Distance is: 0
111764500: system.cpu: Ins: 6306136064, 177e00000 @ PE 4
111764500: global: Predictor bit: 0	 Opcode: 7
111764500: global: CGRA: NOOP.Execute()
111764500: global: Distance is: 0
111764500: system.cpu: Ins: 6306136064, 177e00000 @ PE 5
111764500: global: Predictor bit: 0	 Opcode: 7
111764500: global: CGRA: NOOP.Execute()
111764500: global: Distance is: 0
111764500: system.cpu: Ins: 6306136064, 177e00000 @ PE 6
111764500: global: Predictor bit: 0	 Opcode: 7
111764500: global: CGRA: NOOP.Execute()
111764500: global: Distance is: 0
111764500: system.cpu: Ins: 6306136064, 177e00000 @ PE 7
111764500: global: Predictor bit: 0	 Opcode: 7
111764500: global: CGRA: NOOP.Execute()
111764500: global: Distance is: 0
111764500: system.cpu: Ins: 6306136064, 177e00000 @ PE 8
111764500: global: Predictor bit: 0	 Opcode: 7
111764500: global: CGRA: NOOP.Execute()
111764500: global: Distance is: 0
111764500: system.cpu: Ins: 6306136064, 177e00000 @ PE 9
111764500: global: Predictor bit: 0	 Opcode: 7
111764500: global: CGRA: NOOP.Execute()
111764500: global: Distance is: 0
111764500: system.cpu: Ins: 6306136064, 177e00000 @ PE 10
111764500: global: Predictor bit: 0	 Opcode: 7
111764500: global: CGRA: NOOP.Execute()
111764500: global: Distance is: 0
111764500: system.cpu: Ins: 6306136064, 177e00000 @ PE 11
111764500: global: Predictor bit: 0	 Opcode: 7
111764500: global: CGRA: NOOP.Execute()
111764500: global: Distance is: 0
111764500: system.cpu: Ins: 6306136064, 177e00000 @ PE 12
111764500: global: Predictor bit: 0	 Opcode: 7
111764500: global: CGRA: NOOP.Execute()
111764500: global: Distance is: 0
111764500: system.cpu: Ins: 6306136064, 177e00000 @ PE 13
111764500: global: Predictor bit: 0	 Opcode: 7
111764500: global: CGRA: NOOP.Execute()
111764500: global: Distance is: 0
111764500: system.cpu: Ins: 6306136064, 177e00000 @ PE 14
111764500: global: Predictor bit: 0	 Opcode: 7
111764500: global: CGRA: NOOP.Execute()
111764500: global: Distance is: 0
111764500: system.cpu: Ins: 6306136064, 177e00000 @ PE 15
111764500: global: Predictor bit: 0	 Opcode: 7
111764500: global: CGRA: NOOP.Execute()
111764500: global: Distance is: 0

************* MEM READ *************
Row: 0 - address: 632384 - data: 14
111764500: system.cpu: CGRA advanceTime complete.
111764500: system.cpu: *******IN ADVANCE PC******
111764500: system.cpu: build/ARM/cpu/atomiccgra/atomiccgra.cc,CGRA_advancePC,1759,PC:a7050
111764500: system.cpu: Passed Complete Drain().
111764500: system.cpu: Make latency status=1.
111764500: system.cpu: Inside status idle.
111764500: system.cpu: Exiting schedule events
111764500: system.cpu: We are here after Execution
111765000: system.cpu: Inside CGRA Execution else statement.
111765000: system.cpu: Inside CGRA_Execution block.
111765000: system.cpu: 
CALL IN NOW CGRA_Execution.
111765000: system.cpu: 

 ~~~~~~ CGRA_Execution @ numCycles = 11 ~~~~~~~
111765000: global: 
******** DB INPUT2 ReadAddress = 0************
111765000: global: 
******** DB INPUT1 = 14************
111765000: system.cpu: Ins: 5066801152, 12e014000 @ PE 0
111765000: global: Predictor bit: 1	 Opcode: 2
111765000: global: 
Input1 = 0	Input2 = 0
111765000: global: 
******** LDMI IN THIS PE 0************
111765000: global: 
************** WE *****************
111765000: global: 
WRITE: REG NUMBER: 2 dist: 0
111765000: global: R0: 0	R1: 0	R2: 2	R3: 0
111765000: global: 
WRITE: FPREG NUMBER: 2 dist: 0
111765000: global: FPR0: 0	FPR1: 0	FPR2: 2	FPR3: 0
111765000: global: Writing output 2 to register 2
111765000: global: Distance is: 0
111765000: system.cpu: Ins: 6306136064, 177e00000 @ PE 1
111765000: global: Predictor bit: 0	 Opcode: 7
111765000: global: CGRA: NOOP.Execute()
111765000: global: Distance is: 0
111765000: system.cpu: Ins: 4391452672, 105c04000 @ PE 2
111765000: global: Predictor bit: 0	 Opcode: 0
111765000: global: 
Input1 = 14	Input2 = 0
111765000: global: 
******** SUM IN THIS PE 14************
111765000: global: 
WRITE: REG NUMBER: 0 dist: 0
111765000: global: R0: 14	R1: 0	R2: 0	R3: 0
111765000: global: 
WRITE: FPREG NUMBER: 0 dist: 0
111765000: global: FPR0: 14	FPR1: 0	FPR2: 0	FPR3: 0
111765000: global: Writing output 14 to register 0
111765000: global: Distance is: 0
111765000: system.cpu: Ins: 6306136064, 177e00000 @ PE 3
111765000: global: Predictor bit: 0	 Opcode: 7
111765000: global: CGRA: NOOP.Execute()
111765000: global: Distance is: 0
111765000: system.cpu: Ins: 6306136064, 177e00000 @ PE 4
111765000: global: Predictor bit: 0	 Opcode: 7
111765000: global: CGRA: NOOP.Execute()
111765000: global: Distance is: 0
111765000: system.cpu: Ins: 6306136064, 177e00000 @ PE 5
111765000: global: Predictor bit: 0	 Opcode: 7
111765000: global: CGRA: NOOP.Execute()
111765000: global: Distance is: 0
111765000: system.cpu: Ins: 6306136064, 177e00000 @ PE 6
111765000: global: Predictor bit: 0	 Opcode: 7
111765000: global: CGRA: NOOP.Execute()
111765000: global: Distance is: 0
111765000: system.cpu: Ins: 6306136064, 177e00000 @ PE 7
111765000: global: Predictor bit: 0	 Opcode: 7
111765000: global: CGRA: NOOP.Execute()
111765000: global: Distance is: 0
111765000: system.cpu: Ins: 6306136064, 177e00000 @ PE 8
111765000: global: Predictor bit: 0	 Opcode: 7
111765000: global: CGRA: NOOP.Execute()
111765000: global: Distance is: 0
111765000: system.cpu: Ins: 6306136064, 177e00000 @ PE 9
111765000: global: Predictor bit: 0	 Opcode: 7
111765000: global: CGRA: NOOP.Execute()
111765000: global: Distance is: 0
111765000: system.cpu: Ins: 6306136064, 177e00000 @ PE 10
111765000: global: Predictor bit: 0	 Opcode: 7
111765000: global: CGRA: NOOP.Execute()
111765000: global: Distance is: 0
111765000: system.cpu: Ins: 6306136064, 177e00000 @ PE 11
111765000: global: Predictor bit: 0	 Opcode: 7
111765000: global: CGRA: NOOP.Execute()
111765000: global: Distance is: 0
111765000: system.cpu: Ins: 6306136064, 177e00000 @ PE 12
111765000: global: Predictor bit: 0	 Opcode: 7
111765000: global: CGRA: NOOP.Execute()
111765000: global: Distance is: 0
111765000: system.cpu: Ins: 6306136064, 177e00000 @ PE 13
111765000: global: Predictor bit: 0	 Opcode: 7
111765000: global: CGRA: NOOP.Execute()
111765000: global: Distance is: 0
111765000: system.cpu: Ins: 6306136064, 177e00000 @ PE 14
111765000: global: Predictor bit: 0	 Opcode: 7
111765000: global: CGRA: NOOP.Execute()
111765000: global: Distance is: 0
111765000: system.cpu: Ins: 6306136064, 177e00000 @ PE 15
111765000: global: Predictor bit: 0	 Opcode: 7
111765000: global: CGRA: NOOP.Execute()
111765000: global: Distance is: 0

************* MEM READ *************
Row: 0 - address: 632384 - data: 14
111765000: system.cpu: CGRA advanceTime complete.
111765000: system.cpu: *******IN ADVANCE PC******
111765000: system.cpu: build/ARM/cpu/atomiccgra/atomiccgra.cc,CGRA_advancePC,1759,PC:a70d0
111765000: system.cpu: Passed Complete Drain().
111765000: system.cpu: Make latency status=1.
111765000: system.cpu: Inside status idle.
111765000: system.cpu: Exiting schedule events
111765000: system.cpu: We are here after Execution
111765500: system.cpu: Inside CGRA Execution else statement.
111765500: system.cpu: Inside CGRA_Execution block.
111765500: system.cpu: 
CALL IN NOW CGRA_Execution.
111765500: system.cpu: 

 ~~~~~~ CGRA_Execution @ numCycles = 13 ~~~~~~~
111765500: global: 
******** DB INPUT2 ReadAddress = 0************
111765500: global: 
******** DB INPUT2 ReadAddress = 0************
111765500: system.cpu: Ins: 5335236608, 13e014000 @ PE 0
111765500: global: Predictor bit: 1	 Opcode: 3
111765500: global: 
Input1 = 0	Input2 = 0
111765500: global: 
******** LDUI IN THIS PE 0************
111765500: global: 
************** WE *****************
111765500: global: 
WRITE: REG NUMBER: 2 dist: 0
111765500: global: R0: 0	R1: 0	R2: 2	R3: 0
111765500: global: 
WRITE: FPREG NUMBER: 2 dist: 0
111765500: global: FPR0: 0	FPR1: 0	FPR2: 2	FPR3: 0
111765500: global: Writing output 2 to register 2
111765500: global: Distance is: 0
111765500: system.cpu: Ins: 6306136064, 177e00000 @ PE 1
111765500: global: Predictor bit: 0	 Opcode: 7
111765500: global: CGRA: NOOP.Execute()
111765500: global: Distance is: 0
111765500: system.cpu: Ins: 4798400064, 11e01c640 @ PE 2
111765500: global: Predictor bit: 1	 Opcode: 1
111765500: global: 
Input1 = 1600	Input2 = 14
111765500: global: 
******** LDI IN THIS PE 1600************
111765500: global: 
************** WE *****************
111765500: global: 
WRITE: REG NUMBER: 3 dist: 0
111765500: global: R0: 14	R1: 0	R2: 0	R3: 1600
111765500: global: 
WRITE: FPREG NUMBER: 3 dist: 0
111765500: global: FPR0: 14	FPR1: 0	FPR2: 0	FPR3: 1600
111765500: global: Writing output 1600 to register 3
111765500: global: Distance is: 0
111765500: system.cpu: Ins: 6306136064, 177e00000 @ PE 3
111765500: global: Predictor bit: 0	 Opcode: 7
111765500: global: CGRA: NOOP.Execute()
111765500: global: Distance is: 0
111765500: system.cpu: Ins: 6306136064, 177e00000 @ PE 4
111765500: global: Predictor bit: 0	 Opcode: 7
111765500: global: CGRA: NOOP.Execute()
111765500: global: Distance is: 0
111765500: system.cpu: Ins: 6306136064, 177e00000 @ PE 5
111765500: global: Predictor bit: 0	 Opcode: 7
111765500: global: CGRA: NOOP.Execute()
111765500: global: Distance is: 0
111765500: system.cpu: Ins: 6306136064, 177e00000 @ PE 6
111765500: global: Predictor bit: 0	 Opcode: 7
111765500: global: CGRA: NOOP.Execute()
111765500: global: Distance is: 0
111765500: system.cpu: Ins: 6306136064, 177e00000 @ PE 7
111765500: global: Predictor bit: 0	 Opcode: 7
111765500: global: CGRA: NOOP.Execute()
111765500: global: Distance is: 0
111765500: system.cpu: Ins: 6306136064, 177e00000 @ PE 8
111765500: global: Predictor bit: 0	 Opcode: 7
111765500: global: CGRA: NOOP.Execute()
111765500: global: Distance is: 0
111765500: system.cpu: Ins: 6306136064, 177e00000 @ PE 9
111765500: global: Predictor bit: 0	 Opcode: 7
111765500: global: CGRA: NOOP.Execute()
111765500: global: Distance is: 0
111765500: system.cpu: Ins: 6306136064, 177e00000 @ PE 10
111765500: global: Predictor bit: 0	 Opcode: 7
111765500: global: CGRA: NOOP.Execute()
111765500: global: Distance is: 0
111765500: system.cpu: Ins: 6306136064, 177e00000 @ PE 11
111765500: global: Predictor bit: 0	 Opcode: 7
111765500: global: CGRA: NOOP.Execute()
111765500: global: Distance is: 0
111765500: system.cpu: Ins: 6306136064, 177e00000 @ PE 12
111765500: global: Predictor bit: 0	 Opcode: 7
111765500: global: CGRA: NOOP.Execute()
111765500: global: Distance is: 0
111765500: system.cpu: Ins: 6306136064, 177e00000 @ PE 13
111765500: global: Predictor bit: 0	 Opcode: 7
111765500: global: CGRA: NOOP.Execute()
111765500: global: Distance is: 0
111765500: system.cpu: Ins: 6306136064, 177e00000 @ PE 14
111765500: global: Predictor bit: 0	 Opcode: 7
111765500: global: CGRA: NOOP.Execute()
111765500: global: Distance is: 0
111765500: system.cpu: Ins: 6306136064, 177e00000 @ PE 15
111765500: global: Predictor bit: 0	 Opcode: 7
111765500: global: CGRA: NOOP.Execute()
111765500: global: Distance is: 0

************* MEM READ *************
Row: 0 - address: 632384 - data: 14
111765500: system.cpu: CGRA advanceTime complete.
111765500: system.cpu: *******IN ADVANCE PC******
111765500: system.cpu: build/ARM/cpu/atomiccgra/atomiccgra.cc,CGRA_advancePC,1759,PC:a7150
111765500: system.cpu: Passed Complete Drain().
111765500: system.cpu: Make latency status=1.
111765500: system.cpu: Inside status idle.
111765500: system.cpu: Exiting schedule events
111765500: system.cpu: We are here after Execution
111766000: system.cpu: Inside CGRA Execution else statement.
111766000: system.cpu: Inside CGRA_Execution block.
111766000: system.cpu: 
CALL IN NOW CGRA_Execution.
111766000: system.cpu: 

 ~~~~~~ CGRA_Execution @ numCycles = 15 ~~~~~~~
111766000: global: 
******** DB INPUT2 ReadAddress = 0************
111766000: global: 
******** DB INPUT2 ReadAddress = 0************
111766000: system.cpu: Ins: 4798398465, 11e01c001 @ PE 0
111766000: global: Predictor bit: 1	 Opcode: 1
111766000: global: 
Input1 = 1	Input2 = 0
111766000: global: 
******** LDI IN THIS PE 1************
111766000: global: 
************** WE *****************
111766000: global: 
WRITE: REG NUMBER: 3 dist: 0
111766000: global: R0: 0	R1: 0	R2: 2	R3: 1
111766000: global: 
WRITE: FPREG NUMBER: 3 dist: 0
111766000: global: FPR0: 0	FPR1: 0	FPR2: 2	FPR3: 1
111766000: global: Writing output 1 to register 3
111766000: global: Distance is: 0
111766000: system.cpu: Ins: 6306136064, 177e00000 @ PE 1
111766000: global: Predictor bit: 0	 Opcode: 7
111766000: global: CGRA: NOOP.Execute()
111766000: global: Distance is: 0
111766000: system.cpu: Ins: 5066834074, 12e01c09a @ PE 2
111766000: global: Predictor bit: 1	 Opcode: 2
111766000: global: 
Input1 = 154	Input2 = 14
111766000: global: 
******** LDMI IN THIS PE 154************
111766000: global: 
************** WE *****************
111766000: global: 
WRITE: REG NUMBER: 3 dist: 0
111766000: global: R0: 14	R1: 0	R2: 0	R3: 632384
111766000: global: 
WRITE: FPREG NUMBER: 3 dist: 0
111766000: global: FPR0: 14	FPR1: 0	FPR2: 0	FPR3: 632384
111766000: global: Writing output 632384 to register 3
111766000: global: Distance is: 0
111766000: system.cpu: Ins: 6306136064, 177e00000 @ PE 3
111766000: global: Predictor bit: 0	 Opcode: 7
111766000: global: CGRA: NOOP.Execute()
111766000: global: Distance is: 0
111766000: system.cpu: Ins: 6306136064, 177e00000 @ PE 4
111766000: global: Predictor bit: 0	 Opcode: 7
111766000: global: CGRA: NOOP.Execute()
111766000: global: Distance is: 0
111766000: system.cpu: Ins: 6306136064, 177e00000 @ PE 5
111766000: global: Predictor bit: 0	 Opcode: 7
111766000: global: CGRA: NOOP.Execute()
111766000: global: Distance is: 0
111766000: system.cpu: Ins: 6306136064, 177e00000 @ PE 6
111766000: global: Predictor bit: 0	 Opcode: 7
111766000: global: CGRA: NOOP.Execute()
111766000: global: Distance is: 0
111766000: system.cpu: Ins: 6306136064, 177e00000 @ PE 7
111766000: global: Predictor bit: 0	 Opcode: 7
111766000: global: CGRA: NOOP.Execute()
111766000: global: Distance is: 0
111766000: system.cpu: Ins: 6306136064, 177e00000 @ PE 8
111766000: global: Predictor bit: 0	 Opcode: 7
111766000: global: CGRA: NOOP.Execute()
111766000: global: Distance is: 0
111766000: system.cpu: Ins: 6306136064, 177e00000 @ PE 9
111766000: global: Predictor bit: 0	 Opcode: 7
111766000: global: CGRA: NOOP.Execute()
111766000: global: Distance is: 0
111766000: system.cpu: Ins: 6306136064, 177e00000 @ PE 10
111766000: global: Predictor bit: 0	 Opcode: 7
111766000: global: CGRA: NOOP.Execute()
111766000: global: Distance is: 0
111766000: system.cpu: Ins: 6306136064, 177e00000 @ PE 11
111766000: global: Predictor bit: 0	 Opcode: 7
111766000: global: CGRA: NOOP.Execute()
111766000: global: Distance is: 0
111766000: system.cpu: Ins: 6306136064, 177e00000 @ PE 12
111766000: global: Predictor bit: 0	 Opcode: 7
111766000: global: CGRA: NOOP.Execute()
111766000: global: Distance is: 0
111766000: system.cpu: Ins: 6306136064, 177e00000 @ PE 13
111766000: global: Predictor bit: 0	 Opcode: 7
111766000: global: CGRA: NOOP.Execute()
111766000: global: Distance is: 0
111766000: system.cpu: Ins: 6306136064, 177e00000 @ PE 14
111766000: global: Predictor bit: 0	 Opcode: 7
111766000: global: CGRA: NOOP.Execute()
111766000: global: Distance is: 0
111766000: system.cpu: Ins: 6306136064, 177e00000 @ PE 15
111766000: global: Predictor bit: 0	 Opcode: 7
111766000: global: CGRA: NOOP.Execute()
111766000: global: Distance is: 0

************* MEM READ *************
Row: 0 - address: 632384 - data: 14
111766000: system.cpu: CGRA advanceTime complete.
111766000: system.cpu: *******IN ADVANCE PC******
111766000: system.cpu: build/ARM/cpu/atomiccgra/atomiccgra.cc,CGRA_advancePC,1759,PC:a71d0
111766000: system.cpu: Passed Complete Drain().
111766000: system.cpu: Make latency status=1.
111766000: system.cpu: Inside status idle.
111766000: system.cpu: Exiting schedule events
111766000: system.cpu: We are here after Execution
111766500: system.cpu: Inside CGRA Execution else statement.
111766500: system.cpu: Inside CGRA_Execution block.
111766500: system.cpu: 
CALL IN NOW CGRA_Execution.
111766500: system.cpu: 

 ~~~~~~ CGRA_Execution @ numCycles = 17 ~~~~~~~
111766500: global: 
******** DB INPUT2 ReadAddress = 0************
111766500: global: 
******** DB INPUT2 ReadAddress = 0************
111766500: system.cpu: Ins: 5066833920, 12e01c000 @ PE 0
111766500: global: Predictor bit: 1	 Opcode: 2
111766500: global: 
Input1 = 0	Input2 = 0
111766500: global: 
******** LDMI IN THIS PE 0************
111766500: global: 
************** WE *****************
111766500: global: 
WRITE: REG NUMBER: 3 dist: 0
111766500: global: R0: 0	R1: 0	R2: 2	R3: 1
111766500: global: 
WRITE: FPREG NUMBER: 3 dist: 0
111766500: global: FPR0: 0	FPR1: 0	FPR2: 2	FPR3: 1
111766500: global: Writing output 1 to register 3
111766500: global: Distance is: 0
111766500: system.cpu: Ins: 6306136064, 177e00000 @ PE 1
111766500: global: Predictor bit: 0	 Opcode: 7
111766500: global: CGRA: NOOP.Execute()
111766500: global: Distance is: 0
111766500: system.cpu: Ins: 5335269376, 13e01c000 @ PE 2
111766500: global: Predictor bit: 1	 Opcode: 3
111766500: global: 
Input1 = 0	Input2 = 14
111766500: global: 
******** LDUI IN THIS PE 0************
111766500: global: 
************** WE *****************
111766500: global: 
WRITE: REG NUMBER: 3 dist: 0
111766500: global: R0: 14	R1: 0	R2: 0	R3: 632384
111766500: global: 
WRITE: FPREG NUMBER: 3 dist: 0
111766500: global: FPR0: 14	FPR1: 0	FPR2: 0	FPR3: 632384
111766500: global: Writing output 632384 to register 3
111766500: global: Distance is: 0
111766500: system.cpu: Ins: 6306136064, 177e00000 @ PE 3
111766500: global: Predictor bit: 0	 Opcode: 7
111766500: global: CGRA: NOOP.Execute()
111766500: global: Distance is: 0
111766500: system.cpu: Ins: 6306136064, 177e00000 @ PE 4
111766500: global: Predictor bit: 0	 Opcode: 7
111766500: global: CGRA: NOOP.Execute()
111766500: global: Distance is: 0
111766500: system.cpu: Ins: 6306136064, 177e00000 @ PE 5
111766500: global: Predictor bit: 0	 Opcode: 7
111766500: global: CGRA: NOOP.Execute()
111766500: global: Distance is: 0
111766500: system.cpu: Ins: 6306136064, 177e00000 @ PE 6
111766500: global: Predictor bit: 0	 Opcode: 7
111766500: global: CGRA: NOOP.Execute()
111766500: global: Distance is: 0
111766500: system.cpu: Ins: 6306136064, 177e00000 @ PE 7
111766500: global: Predictor bit: 0	 Opcode: 7
111766500: global: CGRA: NOOP.Execute()
111766500: global: Distance is: 0
111766500: system.cpu: Ins: 6306136064, 177e00000 @ PE 8
111766500: global: Predictor bit: 0	 Opcode: 7
111766500: global: CGRA: NOOP.Execute()
111766500: global: Distance is: 0
111766500: system.cpu: Ins: 6306136064, 177e00000 @ PE 9
111766500: global: Predictor bit: 0	 Opcode: 7
111766500: global: CGRA: NOOP.Execute()
111766500: global: Distance is: 0
111766500: system.cpu: Ins: 6306136064, 177e00000 @ PE 10
111766500: global: Predictor bit: 0	 Opcode: 7
111766500: global: CGRA: NOOP.Execute()
111766500: global: Distance is: 0
111766500: system.cpu: Ins: 6306136064, 177e00000 @ PE 11
111766500: global: Predictor bit: 0	 Opcode: 7
111766500: global: CGRA: NOOP.Execute()
111766500: global: Distance is: 0
111766500: system.cpu: Ins: 6306136064, 177e00000 @ PE 12
111766500: global: Predictor bit: 0	 Opcode: 7
111766500: global: CGRA: NOOP.Execute()
111766500: global: Distance is: 0
111766500: system.cpu: Ins: 6306136064, 177e00000 @ PE 13
111766500: global: Predictor bit: 0	 Opcode: 7
111766500: global: CGRA: NOOP.Execute()
111766500: global: Distance is: 0
111766500: system.cpu: Ins: 6306136064, 177e00000 @ PE 14
111766500: global: Predictor bit: 0	 Opcode: 7
111766500: global: CGRA: NOOP.Execute()
111766500: global: Distance is: 0
111766500: system.cpu: Ins: 6306136064, 177e00000 @ PE 15
111766500: global: Predictor bit: 0	 Opcode: 7
111766500: global: CGRA: NOOP.Execute()
111766500: global: Distance is: 0

************* MEM READ *************
Row: 0 - address: 632384 - data: 14
111766500: system.cpu: CGRA advanceTime complete.
111766500: system.cpu: *******IN ADVANCE PC******
111766500: system.cpu: build/ARM/cpu/atomiccgra/atomiccgra.cc,CGRA_advancePC,1759,PC:a7250
111766500: system.cpu: Passed Complete Drain().
111766500: system.cpu: Make latency status=1.
111766500: system.cpu: Inside status idle.
111766500: system.cpu: Exiting schedule events
111766500: system.cpu: We are here after Execution
111767000: system.cpu: Inside CGRA Execution else statement.
111767000: system.cpu: Inside CGRA_Execution block.
111767000: system.cpu: 
CALL IN NOW CGRA_Execution.
111767000: system.cpu: 

 ~~~~~~ CGRA_Execution @ numCycles = 19 ~~~~~~~
111767000: global: 
******** DB INPUT2 ReadAddress = 0************
111767000: global: 
******** DB INPUT1 ReadAddress = 3************
111767000: system.cpu: Ins: 5335269376, 13e01c000 @ PE 0
111767000: global: Predictor bit: 1	 Opcode: 3
111767000: global: 
Input1 = 0	Input2 = 0
111767000: global: 
******** LDUI IN THIS PE 0************
111767000: global: 
************** WE *****************
111767000: global: 
WRITE: REG NUMBER: 3 dist: 0
111767000: global: R0: 0	R1: 0	R2: 2	R3: 1
111767000: global: 
WRITE: FPREG NUMBER: 3 dist: 0
111767000: global: FPR0: 0	FPR1: 0	FPR2: 2	FPR3: 1
111767000: global: Writing output 1 to register 3
111767000: global: Distance is: 0
111767000: system.cpu: Ins: 6306136064, 177e00000 @ PE 1
111767000: global: Predictor bit: 0	 Opcode: 7
111767000: global: CGRA: NOOP.Execute()
111767000: global: Distance is: 0
111767000: system.cpu: Ins: 6053961732, 168d82004 @ PE 2
111767000: global: Predictor bit: 1	 Opcode: 6
111767000: global: 
Input1 = 632384	Input2 = 4
111767000: global: 
******** ADDRESS GENERATED IN THIS PE 632384************
111767000: global: 
*********Setting Address 9a640 ******
111767000: global: Distance is: 0
111767000: system.cpu: Ins: 6306136064, 177e00000 @ PE 3
111767000: global: Predictor bit: 0	 Opcode: 7
111767000: global: CGRA: NOOP.Execute()
111767000: global: Distance is: 0
111767000: system.cpu: Ins: 6306136064, 177e00000 @ PE 4
111767000: global: Predictor bit: 0	 Opcode: 7
111767000: global: CGRA: NOOP.Execute()
111767000: global: Distance is: 0
111767000: system.cpu: Ins: 6306136064, 177e00000 @ PE 5
111767000: global: Predictor bit: 0	 Opcode: 7
111767000: global: CGRA: NOOP.Execute()
111767000: global: Distance is: 0
111767000: system.cpu: Ins: 6306136064, 177e00000 @ PE 6
111767000: global: Predictor bit: 0	 Opcode: 7
111767000: global: CGRA: NOOP.Execute()
111767000: global: Distance is: 0
111767000: system.cpu: Ins: 6306136064, 177e00000 @ PE 7
111767000: global: Predictor bit: 0	 Opcode: 7
111767000: global: CGRA: NOOP.Execute()
111767000: global: Distance is: 0
111767000: system.cpu: Ins: 6306136064, 177e00000 @ PE 8
111767000: global: Predictor bit: 0	 Opcode: 7
111767000: global: CGRA: NOOP.Execute()
111767000: global: Distance is: 0
111767000: system.cpu: Ins: 6306136064, 177e00000 @ PE 9
111767000: global: Predictor bit: 0	 Opcode: 7
111767000: global: CGRA: NOOP.Execute()
111767000: global: Distance is: 0
111767000: system.cpu: Ins: 6306136064, 177e00000 @ PE 10
111767000: global: Predictor bit: 0	 Opcode: 7
111767000: global: CGRA: NOOP.Execute()
111767000: global: Distance is: 0
111767000: system.cpu: Ins: 6306136064, 177e00000 @ PE 11
111767000: global: Predictor bit: 0	 Opcode: 7
111767000: global: CGRA: NOOP.Execute()
111767000: global: Distance is: 0
111767000: system.cpu: Ins: 6306136064, 177e00000 @ PE 12
111767000: global: Predictor bit: 0	 Opcode: 7
111767000: global: CGRA: NOOP.Execute()
111767000: global: Distance is: 0
111767000: system.cpu: Ins: 6306136064, 177e00000 @ PE 13
111767000: global: Predictor bit: 0	 Opcode: 7
111767000: global: CGRA: NOOP.Execute()
111767000: global: Distance is: 0
111767000: system.cpu: Ins: 6306136064, 177e00000 @ PE 14
111767000: global: Predictor bit: 0	 Opcode: 7
111767000: global: CGRA: NOOP.Execute()
111767000: global: Distance is: 0
111767000: system.cpu: Ins: 6306136064, 177e00000 @ PE 15
111767000: global: Predictor bit: 0	 Opcode: 7
111767000: global: CGRA: NOOP.Execute()
111767000: global: Distance is: 0

************* MEM READ *************
Row: 0 - address: 632384 - data: 14
111767000: system.cpu: CGRA advanceTime complete.
111767000: system.cpu: *******IN ADVANCE PC******
111767000: system.cpu: build/ARM/cpu/atomiccgra/atomiccgra.cc,CGRA_advancePC,1759,PC:a72d0
111767000: system.cpu: Passed Complete Drain().
111767000: system.cpu: Make latency status=1.
111767000: system.cpu: Inside status idle.
111767000: system.cpu: Exiting schedule events
111767000: system.cpu: We are here after Execution
111767500: system.cpu: Inside CGRA Execution else statement.
111767500: system.cpu: Inside CGRA_Execution block.
111767500: system.cpu: 
CALL IN NOW CGRA_Execution.
111767500: system.cpu: 

 ~~~~~~ CGRA_Execution @ numCycles = 21 ~~~~~~~
111767500: global: 
******** DB INPUT2 ReadAddress = 0************
111767500: global: 
******** DB INPUT1 = 14************
111767500: system.cpu: Ins: 4798301768, 11e004648 @ PE 0
111767500: global: Predictor bit: 1	 Opcode: 1
111767500: global: 
Input1 = 1608	Input2 = 0
111767500: global: 
******** LDI IN THIS PE 1608************
111767500: global: 
************** WE *****************
111767500: global: 
WRITE: REG NUMBER: 0 dist: 0
111767500: global: R0: 1608	R1: 0	R2: 2	R3: 1
111767500: global: 
WRITE: FPREG NUMBER: 0 dist: 0
111767500: global: FPR0: 1608	FPR1: 0	FPR2: 2	FPR3: 1
111767500: global: Writing output 1608 to register 0
111767500: global: Distance is: 0
111767500: system.cpu: Ins: 6306136064, 177e00000 @ PE 1
111767500: global: Predictor bit: 0	 Opcode: 7
111767500: global: CGRA: NOOP.Execute()
111767500: global: Distance is: 0
111767500: system.cpu: Ins: 4391550976, 105c1c000 @ PE 2
111767500: global: Predictor bit: 0	 Opcode: 0
111767500: global: 
Input1 = 14	Input2 = 0
111767500: global: 
******** SUM IN THIS PE 14************
111767500: global: 
WRITE: REG NUMBER: 3 dist: 0
111767500: global: R0: 14	R1: 0	R2: 0	R3: 14
111767500: global: 
WRITE: FPREG NUMBER: 3 dist: 0
111767500: global: FPR0: 14	FPR1: 0	FPR2: 0	FPR3: 14
111767500: global: Writing output 14 to register 3
111767500: global: Distance is: 0
111767500: system.cpu: Ins: 6306136064, 177e00000 @ PE 3
111767500: global: Predictor bit: 0	 Opcode: 7
111767500: global: CGRA: NOOP.Execute()
111767500: global: Distance is: 0
111767500: system.cpu: Ins: 6306136064, 177e00000 @ PE 4
111767500: global: Predictor bit: 0	 Opcode: 7
111767500: global: CGRA: NOOP.Execute()
111767500: global: Distance is: 0
111767500: system.cpu: Ins: 6306136064, 177e00000 @ PE 5
111767500: global: Predictor bit: 0	 Opcode: 7
111767500: global: CGRA: NOOP.Execute()
111767500: global: Distance is: 0
111767500: system.cpu: Ins: 6306136064, 177e00000 @ PE 6
111767500: global: Predictor bit: 0	 Opcode: 7
111767500: global: CGRA: NOOP.Execute()
111767500: global: Distance is: 0
111767500: system.cpu: Ins: 6306136064, 177e00000 @ PE 7
111767500: global: Predictor bit: 0	 Opcode: 7
111767500: global: CGRA: NOOP.Execute()
111767500: global: Distance is: 0
111767500: system.cpu: Ins: 6306136064, 177e00000 @ PE 8
111767500: global: Predictor bit: 0	 Opcode: 7
111767500: global: CGRA: NOOP.Execute()
111767500: global: Distance is: 0
111767500: system.cpu: Ins: 6306136064, 177e00000 @ PE 9
111767500: global: Predictor bit: 0	 Opcode: 7
111767500: global: CGRA: NOOP.Execute()
111767500: global: Distance is: 0
111767500: system.cpu: Ins: 6306136064, 177e00000 @ PE 10
111767500: global: Predictor bit: 0	 Opcode: 7
111767500: global: CGRA: NOOP.Execute()
111767500: global: Distance is: 0
111767500: system.cpu: Ins: 6306136064, 177e00000 @ PE 11
111767500: global: Predictor bit: 0	 Opcode: 7
111767500: global: CGRA: NOOP.Execute()
111767500: global: Distance is: 0
111767500: system.cpu: Ins: 6306136064, 177e00000 @ PE 12
111767500: global: Predictor bit: 0	 Opcode: 7
111767500: global: CGRA: NOOP.Execute()
111767500: global: Distance is: 0
111767500: system.cpu: Ins: 6306136064, 177e00000 @ PE 13
111767500: global: Predictor bit: 0	 Opcode: 7
111767500: global: CGRA: NOOP.Execute()
111767500: global: Distance is: 0
111767500: system.cpu: Ins: 6306136064, 177e00000 @ PE 14
111767500: global: Predictor bit: 0	 Opcode: 7
111767500: global: CGRA: NOOP.Execute()
111767500: global: Distance is: 0
111767500: system.cpu: Ins: 6306136064, 177e00000 @ PE 15
111767500: global: Predictor bit: 0	 Opcode: 7
111767500: global: CGRA: NOOP.Execute()
111767500: global: Distance is: 0

************* MEM READ *************
Row: 0 - address: 632384 - data: 14
111767500: system.cpu: CGRA advanceTime complete.
111767500: system.cpu: *******IN ADVANCE PC******
111767500: system.cpu: build/ARM/cpu/atomiccgra/atomiccgra.cc,CGRA_advancePC,1759,PC:a7350
111767500: system.cpu: Passed Complete Drain().
111767500: system.cpu: Make latency status=1.
111767500: system.cpu: Inside status idle.
111767500: system.cpu: Exiting schedule events
111767500: system.cpu: We are here after Execution
111768000: system.cpu: Inside CGRA Execution else statement.
111768000: system.cpu: Inside CGRA_Execution block.
111768000: system.cpu: 
CALL IN NOW CGRA_Execution.
111768000: system.cpu: 

 ~~~~~~ CGRA_Execution @ numCycles = 23 ~~~~~~~
111768000: global: 
******** DB INPUT2 ReadAddress = 0************
111768000: system.cpu: Ins: 5066735770, 12e00409a @ PE 0
111768000: global: Predictor bit: 1	 Opcode: 2
111768000: global: 
Input1 = 154	Input2 = 1608
111768000: global: 
******** LDMI IN THIS PE 154************
111768000: global: 
************** WE *****************
111768000: global: 
WRITE: REG NUMBER: 0 dist: 0
111768000: global: R0: 632392	R1: 0	R2: 2	R3: 1
111768000: global: 
WRITE: FPREG NUMBER: 0 dist: 0
111768000: global: FPR0: 632392	FPR1: 0	FPR2: 2	FPR3: 1
111768000: global: Writing output 632392 to register 0
111768000: global: Distance is: 0
111768000: system.cpu: Ins: 6306136064, 177e00000 @ PE 1
111768000: global: Predictor bit: 0	 Opcode: 7
111768000: global: CGRA: NOOP.Execute()
111768000: global: Distance is: 0
111768000: system.cpu: Ins: 6306136064, 177e00000 @ PE 2
111768000: global: Predictor bit: 0	 Opcode: 7
111768000: global: CGRA: NOOP.Execute()
111768000: global: Distance is: 0
111768000: system.cpu: Ins: 6306136064, 177e00000 @ PE 3
111768000: global: Predictor bit: 0	 Opcode: 7
111768000: global: CGRA: NOOP.Execute()
111768000: global: Distance is: 0
111768000: system.cpu: Ins: 6306136064, 177e00000 @ PE 4
111768000: global: Predictor bit: 0	 Opcode: 7
111768000: global: CGRA: NOOP.Execute()
111768000: global: Distance is: 0
111768000: system.cpu: Ins: 6306136064, 177e00000 @ PE 5
111768000: global: Predictor bit: 0	 Opcode: 7
111768000: global: CGRA: NOOP.Execute()
111768000: global: Distance is: 0
111768000: system.cpu: Ins: 6306136064, 177e00000 @ PE 6
111768000: global: Predictor bit: 0	 Opcode: 7
111768000: global: CGRA: NOOP.Execute()
111768000: global: Distance is: 0
111768000: system.cpu: Ins: 6306136064, 177e00000 @ PE 7
111768000: global: Predictor bit: 0	 Opcode: 7
111768000: global: CGRA: NOOP.Execute()
111768000: global: Distance is: 0
111768000: system.cpu: Ins: 6306136064, 177e00000 @ PE 8
111768000: global: Predictor bit: 0	 Opcode: 7
111768000: global: CGRA: NOOP.Execute()
111768000: global: Distance is: 0
111768000: system.cpu: Ins: 6306136064, 177e00000 @ PE 9
111768000: global: Predictor bit: 0	 Opcode: 7
111768000: global: CGRA: NOOP.Execute()
111768000: global: Distance is: 0
111768000: system.cpu: Ins: 6306136064, 177e00000 @ PE 10
111768000: global: Predictor bit: 0	 Opcode: 7
111768000: global: CGRA: NOOP.Execute()
111768000: global: Distance is: 0
111768000: system.cpu: Ins: 6306136064, 177e00000 @ PE 11
111768000: global: Predictor bit: 0	 Opcode: 7
111768000: global: CGRA: NOOP.Execute()
111768000: global: Distance is: 0
111768000: system.cpu: Ins: 6306136064, 177e00000 @ PE 12
111768000: global: Predictor bit: 0	 Opcode: 7
111768000: global: CGRA: NOOP.Execute()
111768000: global: Distance is: 0
111768000: system.cpu: Ins: 6306136064, 177e00000 @ PE 13
111768000: global: Predictor bit: 0	 Opcode: 7
111768000: global: CGRA: NOOP.Execute()
111768000: global: Distance is: 0
111768000: system.cpu: Ins: 6306136064, 177e00000 @ PE 14
111768000: global: Predictor bit: 0	 Opcode: 7
111768000: global: CGRA: NOOP.Execute()
111768000: global: Distance is: 0
111768000: system.cpu: Ins: 6306136064, 177e00000 @ PE 15
111768000: global: Predictor bit: 0	 Opcode: 7
111768000: global: CGRA: NOOP.Execute()
111768000: global: Distance is: 0

************* MEM READ *************
Row: 0 - address: 632384 - data: 14
111768000: system.cpu: CGRA advanceTime complete.
111768000: system.cpu: *******IN ADVANCE PC******
111768000: system.cpu: build/ARM/cpu/atomiccgra/atomiccgra.cc,CGRA_advancePC,1759,PC:a73d0
111768000: system.cpu: Passed Complete Drain().
111768000: system.cpu: Make latency status=1.
111768000: system.cpu: Inside status idle.
111768000: system.cpu: Exiting schedule events
111768000: system.cpu: We are here after Execution
111768500: system.cpu: Inside CGRA Execution else statement.
111768500: system.cpu: Inside CGRA_Execution block.
111768500: system.cpu: 
CALL IN NOW CGRA_Execution.
111768500: system.cpu: 

 ~~~~~~ CGRA_Execution @ numCycles = 25 ~~~~~~~
111768500: global: 
******** DB INPUT2 ReadAddress = 0************
111768500: system.cpu: Ins: 5335171072, 13e004000 @ PE 0
111768500: global: Predictor bit: 1	 Opcode: 3
111768500: global: 
Input1 = 0	Input2 = 632392
111768500: global: 
******** LDUI IN THIS PE 0************
111768500: global: 
************** WE *****************
111768500: global: 
WRITE: REG NUMBER: 0 dist: 0
111768500: global: R0: 632392	R1: 0	R2: 2	R3: 1
111768500: global: 
WRITE: FPREG NUMBER: 0 dist: 0
111768500: global: FPR0: 632392	FPR1: 0	FPR2: 2	FPR3: 1
111768500: global: Writing output 632392 to register 0
111768500: global: Distance is: 0
111768500: system.cpu: Ins: 6306136064, 177e00000 @ PE 1
111768500: global: Predictor bit: 0	 Opcode: 7
111768500: global: CGRA: NOOP.Execute()
111768500: global: Distance is: 0
111768500: system.cpu: Ins: 6306136064, 177e00000 @ PE 2
111768500: global: Predictor bit: 0	 Opcode: 7
111768500: global: CGRA: NOOP.Execute()
111768500: global: Distance is: 0
111768500: system.cpu: Ins: 6306136064, 177e00000 @ PE 3
111768500: global: Predictor bit: 0	 Opcode: 7
111768500: global: CGRA: NOOP.Execute()
111768500: global: Distance is: 0
111768500: system.cpu: Ins: 6306136064, 177e00000 @ PE 4
111768500: global: Predictor bit: 0	 Opcode: 7
111768500: global: CGRA: NOOP.Execute()
111768500: global: Distance is: 0
111768500: system.cpu: Ins: 6306136064, 177e00000 @ PE 5
111768500: global: Predictor bit: 0	 Opcode: 7
111768500: global: CGRA: NOOP.Execute()
111768500: global: Distance is: 0
111768500: system.cpu: Ins: 6306136064, 177e00000 @ PE 6
111768500: global: Predictor bit: 0	 Opcode: 7
111768500: global: CGRA: NOOP.Execute()
111768500: global: Distance is: 0
111768500: system.cpu: Ins: 6306136064, 177e00000 @ PE 7
111768500: global: Predictor bit: 0	 Opcode: 7
111768500: global: CGRA: NOOP.Execute()
111768500: global: Distance is: 0
111768500: system.cpu: Ins: 6306136064, 177e00000 @ PE 8
111768500: global: Predictor bit: 0	 Opcode: 7
111768500: global: CGRA: NOOP.Execute()
111768500: global: Distance is: 0
111768500: system.cpu: Ins: 6306136064, 177e00000 @ PE 9
111768500: global: Predictor bit: 0	 Opcode: 7
111768500: global: CGRA: NOOP.Execute()
111768500: global: Distance is: 0
111768500: system.cpu: Ins: 6306136064, 177e00000 @ PE 10
111768500: global: Predictor bit: 0	 Opcode: 7
111768500: global: CGRA: NOOP.Execute()
111768500: global: Distance is: 0
111768500: system.cpu: Ins: 6306136064, 177e00000 @ PE 11
111768500: global: Predictor bit: 0	 Opcode: 7
111768500: global: CGRA: NOOP.Execute()
111768500: global: Distance is: 0
111768500: system.cpu: Ins: 6306136064, 177e00000 @ PE 12
111768500: global: Predictor bit: 0	 Opcode: 7
111768500: global: CGRA: NOOP.Execute()
111768500: global: Distance is: 0
111768500: system.cpu: Ins: 6306136064, 177e00000 @ PE 13
111768500: global: Predictor bit: 0	 Opcode: 7
111768500: global: CGRA: NOOP.Execute()
111768500: global: Distance is: 0
111768500: system.cpu: Ins: 6306136064, 177e00000 @ PE 14
111768500: global: Predictor bit: 0	 Opcode: 7
111768500: global: CGRA: NOOP.Execute()
111768500: global: Distance is: 0
111768500: system.cpu: Ins: 6306136064, 177e00000 @ PE 15
111768500: global: Predictor bit: 0	 Opcode: 7
111768500: global: CGRA: NOOP.Execute()
111768500: global: Distance is: 0

************* MEM READ *************
Row: 0 - address: 632384 - data: 14
111768500: system.cpu: CGRA advanceTime complete.
111768500: system.cpu: *******IN ADVANCE PC******
111768500: system.cpu: build/ARM/cpu/atomiccgra/atomiccgra.cc,CGRA_advancePC,1759,PC:a7450
111768500: system.cpu: Passed Complete Drain().
111768500: system.cpu: Make latency status=1.
111768500: system.cpu: Inside status idle.
111768500: system.cpu: Exiting schedule events
111768500: system.cpu: We are here after Execution
111769000: system.cpu: Inside CGRA Execution else statement.
111769000: system.cpu: Inside CGRA_Execution block.
111769000: system.cpu: 
CALL IN NOW CGRA_Execution.
111769000: system.cpu: 

 ~~~~~~ CGRA_Execution @ numCycles = 27 ~~~~~~~
111769000: global: 
******** DB INPUT2 ReadAddress = 0************
111769000: system.cpu: Ins: 4798334536, 11e00c648 @ PE 0
111769000: global: Predictor bit: 1	 Opcode: 1
111769000: global: 
Input1 = 1608	Input2 = 632392
111769000: global: 
******** LDI IN THIS PE 1608************
111769000: global: 
************** WE *****************
111769000: global: 
WRITE: REG NUMBER: 1 dist: 0
111769000: global: R0: 632392	R1: 1608	R2: 2	R3: 1
111769000: global: 
WRITE: FPREG NUMBER: 1 dist: 0
111769000: global: FPR0: 632392	FPR1: 1608	FPR2: 2	FPR3: 1
111769000: global: Writing output 1608 to register 1
111769000: global: Distance is: 0
111769000: system.cpu: Ins: 6306136064, 177e00000 @ PE 1
111769000: global: Predictor bit: 0	 Opcode: 7
111769000: global: CGRA: NOOP.Execute()
111769000: global: Distance is: 0
111769000: system.cpu: Ins: 6306136064, 177e00000 @ PE 2
111769000: global: Predictor bit: 0	 Opcode: 7
111769000: global: CGRA: NOOP.Execute()
111769000: global: Distance is: 0
111769000: system.cpu: Ins: 6306136064, 177e00000 @ PE 3
111769000: global: Predictor bit: 0	 Opcode: 7
111769000: global: CGRA: NOOP.Execute()
111769000: global: Distance is: 0
111769000: system.cpu: Ins: 6306136064, 177e00000 @ PE 4
111769000: global: Predictor bit: 0	 Opcode: 7
111769000: global: CGRA: NOOP.Execute()
111769000: global: Distance is: 0
111769000: system.cpu: Ins: 6306136064, 177e00000 @ PE 5
111769000: global: Predictor bit: 0	 Opcode: 7
111769000: global: CGRA: NOOP.Execute()
111769000: global: Distance is: 0
111769000: system.cpu: Ins: 6306136064, 177e00000 @ PE 6
111769000: global: Predictor bit: 0	 Opcode: 7
111769000: global: CGRA: NOOP.Execute()
111769000: global: Distance is: 0
111769000: system.cpu: Ins: 6306136064, 177e00000 @ PE 7
111769000: global: Predictor bit: 0	 Opcode: 7
111769000: global: CGRA: NOOP.Execute()
111769000: global: Distance is: 0
111769000: system.cpu: Ins: 6306136064, 177e00000 @ PE 8
111769000: global: Predictor bit: 0	 Opcode: 7
111769000: global: CGRA: NOOP.Execute()
111769000: global: Distance is: 0
111769000: system.cpu: Ins: 6306136064, 177e00000 @ PE 9
111769000: global: Predictor bit: 0	 Opcode: 7
111769000: global: CGRA: NOOP.Execute()
111769000: global: Distance is: 0
111769000: system.cpu: Ins: 6306136064, 177e00000 @ PE 10
111769000: global: Predictor bit: 0	 Opcode: 7
111769000: global: CGRA: NOOP.Execute()
111769000: global: Distance is: 0
111769000: system.cpu: Ins: 6306136064, 177e00000 @ PE 11
111769000: global: Predictor bit: 0	 Opcode: 7
111769000: global: CGRA: NOOP.Execute()
111769000: global: Distance is: 0
111769000: system.cpu: Ins: 6306136064, 177e00000 @ PE 12
111769000: global: Predictor bit: 0	 Opcode: 7
111769000: global: CGRA: NOOP.Execute()
111769000: global: Distance is: 0
111769000: system.cpu: Ins: 6306136064, 177e00000 @ PE 13
111769000: global: Predictor bit: 0	 Opcode: 7
111769000: global: CGRA: NOOP.Execute()
111769000: global: Distance is: 0
111769000: system.cpu: Ins: 6306136064, 177e00000 @ PE 14
111769000: global: Predictor bit: 0	 Opcode: 7
111769000: global: CGRA: NOOP.Execute()
111769000: global: Distance is: 0
111769000: system.cpu: Ins: 6306136064, 177e00000 @ PE 15
111769000: global: Predictor bit: 0	 Opcode: 7
111769000: global: CGRA: NOOP.Execute()
111769000: global: Distance is: 0

************* MEM READ *************
Row: 0 - address: 632384 - data: 14
111769000: system.cpu: CGRA advanceTime complete.
111769000: system.cpu: *******IN ADVANCE PC******
111769000: system.cpu: build/ARM/cpu/atomiccgra/atomiccgra.cc,CGRA_advancePC,1759,PC:a74d0
111769000: system.cpu: Passed Complete Drain().
111769000: system.cpu: Make latency status=1.
111769000: system.cpu: Inside status idle.
111769000: system.cpu: Exiting schedule events
111769000: system.cpu: We are here after Execution
111769500: system.cpu: Inside CGRA Execution else statement.
111769500: system.cpu: Inside CGRA_Execution block.
111769500: system.cpu: 
CALL IN NOW CGRA_Execution.
111769500: system.cpu: 

 ~~~~~~ CGRA_Execution @ numCycles = 29 ~~~~~~~
111769500: global: 
******** DB INPUT2 ReadAddress = 0************
111769500: system.cpu: Ins: 5066768538, 12e00c09a @ PE 0
111769500: global: Predictor bit: 1	 Opcode: 2
111769500: global: 
Input1 = 154	Input2 = 632392
111769500: global: 
******** LDMI IN THIS PE 154************
111769500: global: 
************** WE *****************
111769500: global: 
WRITE: REG NUMBER: 1 dist: 0
111769500: global: R0: 632392	R1: 632392	R2: 2	R3: 1
111769500: global: 
WRITE: FPREG NUMBER: 1 dist: 0
111769500: global: FPR0: 632392	FPR1: 632392	FPR2: 2	FPR3: 1
111769500: global: Writing output 632392 to register 1
111769500: global: Distance is: 0
111769500: system.cpu: Ins: 6306136064, 177e00000 @ PE 1
111769500: global: Predictor bit: 0	 Opcode: 7
111769500: global: CGRA: NOOP.Execute()
111769500: global: Distance is: 0
111769500: system.cpu: Ins: 6306136064, 177e00000 @ PE 2
111769500: global: Predictor bit: 0	 Opcode: 7
111769500: global: CGRA: NOOP.Execute()
111769500: global: Distance is: 0
111769500: system.cpu: Ins: 6306136064, 177e00000 @ PE 3
111769500: global: Predictor bit: 0	 Opcode: 7
111769500: global: CGRA: NOOP.Execute()
111769500: global: Distance is: 0
111769500: system.cpu: Ins: 6306136064, 177e00000 @ PE 4
111769500: global: Predictor bit: 0	 Opcode: 7
111769500: global: CGRA: NOOP.Execute()
111769500: global: Distance is: 0
111769500: system.cpu: Ins: 6306136064, 177e00000 @ PE 5
111769500: global: Predictor bit: 0	 Opcode: 7
111769500: global: CGRA: NOOP.Execute()
111769500: global: Distance is: 0
111769500: system.cpu: Ins: 6306136064, 177e00000 @ PE 6
111769500: global: Predictor bit: 0	 Opcode: 7
111769500: global: CGRA: NOOP.Execute()
111769500: global: Distance is: 0
111769500: system.cpu: Ins: 6306136064, 177e00000 @ PE 7
111769500: global: Predictor bit: 0	 Opcode: 7
111769500: global: CGRA: NOOP.Execute()
111769500: global: Distance is: 0
111769500: system.cpu: Ins: 6306136064, 177e00000 @ PE 8
111769500: global: Predictor bit: 0	 Opcode: 7
111769500: global: CGRA: NOOP.Execute()
111769500: global: Distance is: 0
111769500: system.cpu: Ins: 6306136064, 177e00000 @ PE 9
111769500: global: Predictor bit: 0	 Opcode: 7
111769500: global: CGRA: NOOP.Execute()
111769500: global: Distance is: 0
111769500: system.cpu: Ins: 6306136064, 177e00000 @ PE 10
111769500: global: Predictor bit: 0	 Opcode: 7
111769500: global: CGRA: NOOP.Execute()
111769500: global: Distance is: 0
111769500: system.cpu: Ins: 6306136064, 177e00000 @ PE 11
111769500: global: Predictor bit: 0	 Opcode: 7
111769500: global: CGRA: NOOP.Execute()
111769500: global: Distance is: 0
111769500: system.cpu: Ins: 6306136064, 177e00000 @ PE 12
111769500: global: Predictor bit: 0	 Opcode: 7
111769500: global: CGRA: NOOP.Execute()
111769500: global: Distance is: 0
111769500: system.cpu: Ins: 6306136064, 177e00000 @ PE 13
111769500: global: Predictor bit: 0	 Opcode: 7
111769500: global: CGRA: NOOP.Execute()
111769500: global: Distance is: 0
111769500: system.cpu: Ins: 6306136064, 177e00000 @ PE 14
111769500: global: Predictor bit: 0	 Opcode: 7
111769500: global: CGRA: NOOP.Execute()
111769500: global: Distance is: 0
111769500: system.cpu: Ins: 6306136064, 177e00000 @ PE 15
111769500: global: Predictor bit: 0	 Opcode: 7
111769500: global: CGRA: NOOP.Execute()
111769500: global: Distance is: 0

************* MEM READ *************
Row: 0 - address: 632384 - data: 14
111769500: system.cpu: CGRA advanceTime complete.
111769500: system.cpu: *******IN ADVANCE PC******
111769500: system.cpu: build/ARM/cpu/atomiccgra/atomiccgra.cc,CGRA_advancePC,1759,PC:a7550
111769500: system.cpu: Passed Complete Drain().
111769500: system.cpu: Make latency status=1.
111769500: system.cpu: Inside status idle.
111769500: system.cpu: Exiting schedule events
111769500: system.cpu: We are here after Execution
111770000: system.cpu: Inside CGRA Execution else statement.
111770000: system.cpu: Inside CGRA_Execution block.
111770000: system.cpu: 
CALL IN NOW CGRA_Execution.
111770000: system.cpu: 

 ~~~~~~ CGRA_Execution @ numCycles = 31 ~~~~~~~
111770000: global: 
******** DB INPUT2 ReadAddress = 0************
111770000: system.cpu: Ins: 5335203840, 13e00c000 @ PE 0
111770000: global: Predictor bit: 1	 Opcode: 3
111770000: global: 
Input1 = 0	Input2 = 632392
111770000: global: 
******** LDUI IN THIS PE 0************
111770000: global: 
************** WE *****************
111770000: global: 
WRITE: REG NUMBER: 1 dist: 0
111770000: global: R0: 632392	R1: 632392	R2: 2	R3: 1
111770000: global: 
WRITE: FPREG NUMBER: 1 dist: 0
111770000: global: FPR0: 632392	FPR1: 632392	FPR2: 2	FPR3: 1
111770000: global: Writing output 632392 to register 1
111770000: global: Distance is: 0
111770000: system.cpu: Ins: 6306136064, 177e00000 @ PE 1
111770000: global: Predictor bit: 0	 Opcode: 7
111770000: global: CGRA: NOOP.Execute()
111770000: global: Distance is: 0
111770000: system.cpu: Ins: 6306136064, 177e00000 @ PE 2
111770000: global: Predictor bit: 0	 Opcode: 7
111770000: global: CGRA: NOOP.Execute()
111770000: global: Distance is: 0
111770000: system.cpu: Ins: 6306136064, 177e00000 @ PE 3
111770000: global: Predictor bit: 0	 Opcode: 7
111770000: global: CGRA: NOOP.Execute()
111770000: global: Distance is: 0
111770000: system.cpu: Ins: 6306136064, 177e00000 @ PE 4
111770000: global: Predictor bit: 0	 Opcode: 7
111770000: global: CGRA: NOOP.Execute()
111770000: global: Distance is: 0
111770000: system.cpu: Ins: 6306136064, 177e00000 @ PE 5
111770000: global: Predictor bit: 0	 Opcode: 7
111770000: global: CGRA: NOOP.Execute()
111770000: global: Distance is: 0
111770000: system.cpu: Ins: 6306136064, 177e00000 @ PE 6
111770000: global: Predictor bit: 0	 Opcode: 7
111770000: global: CGRA: NOOP.Execute()
111770000: global: Distance is: 0
111770000: system.cpu: Ins: 6306136064, 177e00000 @ PE 7
111770000: global: Predictor bit: 0	 Opcode: 7
111770000: global: CGRA: NOOP.Execute()
111770000: global: Distance is: 0
111770000: system.cpu: Ins: 6306136064, 177e00000 @ PE 8
111770000: global: Predictor bit: 0	 Opcode: 7
111770000: global: CGRA: NOOP.Execute()
111770000: global: Distance is: 0
111770000: system.cpu: Ins: 6306136064, 177e00000 @ PE 9
111770000: global: Predictor bit: 0	 Opcode: 7
111770000: global: CGRA: NOOP.Execute()
111770000: global: Distance is: 0
111770000: system.cpu: Ins: 6306136064, 177e00000 @ PE 10
111770000: global: Predictor bit: 0	 Opcode: 7
111770000: global: CGRA: NOOP.Execute()
111770000: global: Distance is: 0
111770000: system.cpu: Ins: 6306136064, 177e00000 @ PE 11
111770000: global: Predictor bit: 0	 Opcode: 7
111770000: global: CGRA: NOOP.Execute()
111770000: global: Distance is: 0
111770000: system.cpu: Ins: 6306136064, 177e00000 @ PE 12
111770000: global: Predictor bit: 0	 Opcode: 7
111770000: global: CGRA: NOOP.Execute()
111770000: global: Distance is: 0
111770000: system.cpu: Ins: 6306136064, 177e00000 @ PE 13
111770000: global: Predictor bit: 0	 Opcode: 7
111770000: global: CGRA: NOOP.Execute()
111770000: global: Distance is: 0
111770000: system.cpu: Ins: 6306136064, 177e00000 @ PE 14
111770000: global: Predictor bit: 0	 Opcode: 7
111770000: global: CGRA: NOOP.Execute()
111770000: global: Distance is: 0
111770000: system.cpu: Ins: 6306136064, 177e00000 @ PE 15
111770000: global: Predictor bit: 0	 Opcode: 7
111770000: global: CGRA: NOOP.Execute()
111770000: global: Distance is: 0

************* MEM READ *************
Row: 0 - address: 632384 - data: 14
111770000: system.cpu: CGRA advanceTime complete.
111770000: system.cpu: *******IN ADVANCE PC******
111770000: system.cpu: build/ARM/cpu/atomiccgra/atomiccgra.cc,CGRA_advancePC,1759,PC:a75d0
111770000: system.cpu: Passed Complete Drain().
111770000: system.cpu: Make latency status=1.
111770000: system.cpu: Inside status idle.
111770000: system.cpu: Exiting schedule events
111770000: system.cpu: We are here after Execution
111770500: system.cpu: Inside CGRA Execution else statement.
111770500: system.cpu: Inside CGRA_Execution block.
111770500: system.cpu: 
CALL IN NOW CGRA_Execution.
111770500: system.cpu: 

 ~~~~~~ CGRA_Execution @ numCycles = 33 ~~~~~~~
111770500: system.cpu: Ins: 6306136064, 177e00000 @ PE 0
111770500: global: Predictor bit: 0	 Opcode: 7
111770500: global: CGRA: NOOP.Execute()
111770500: global: Distance is: 0
111770500: system.cpu: Ins: 6306136064, 177e00000 @ PE 1
111770500: global: Predictor bit: 0	 Opcode: 7
111770500: global: CGRA: NOOP.Execute()
111770500: global: Distance is: 0
111770500: system.cpu: Ins: 6306136064, 177e00000 @ PE 2
111770500: global: Predictor bit: 0	 Opcode: 7
111770500: global: CGRA: NOOP.Execute()
111770500: global: Distance is: 0
111770500: system.cpu: Ins: 6306136064, 177e00000 @ PE 3
111770500: global: Predictor bit: 0	 Opcode: 7
111770500: global: CGRA: NOOP.Execute()
111770500: global: Distance is: 0
111770500: system.cpu: Ins: 6306136064, 177e00000 @ PE 4
111770500: global: Predictor bit: 0	 Opcode: 7
111770500: global: CGRA: NOOP.Execute()
111770500: global: Distance is: 0
111770500: system.cpu: Ins: 6306136064, 177e00000 @ PE 5
111770500: global: Predictor bit: 0	 Opcode: 7
111770500: global: CGRA: NOOP.Execute()
111770500: global: Distance is: 0
111770500: system.cpu: Ins: 6306136064, 177e00000 @ PE 6
111770500: global: Predictor bit: 0	 Opcode: 7
111770500: global: CGRA: NOOP.Execute()
111770500: global: Distance is: 0
111770500: system.cpu: Ins: 6306136064, 177e00000 @ PE 7
111770500: global: Predictor bit: 0	 Opcode: 7
111770500: global: CGRA: NOOP.Execute()
111770500: global: Distance is: 0
111770500: system.cpu: Ins: 6306136064, 177e00000 @ PE 8
111770500: global: Predictor bit: 0	 Opcode: 7
111770500: global: CGRA: NOOP.Execute()
111770500: global: Distance is: 0
111770500: system.cpu: Ins: 6306136064, 177e00000 @ PE 9
111770500: global: Predictor bit: 0	 Opcode: 7
111770500: global: CGRA: NOOP.Execute()
111770500: global: Distance is: 0
111770500: system.cpu: Ins: 6306136064, 177e00000 @ PE 10
111770500: global: Predictor bit: 0	 Opcode: 7
111770500: global: CGRA: NOOP.Execute()
111770500: global: Distance is: 0
111770500: system.cpu: Ins: 6306136064, 177e00000 @ PE 11
111770500: global: Predictor bit: 0	 Opcode: 7
111770500: global: CGRA: NOOP.Execute()
111770500: global: Distance is: 0
111770500: system.cpu: Ins: 6306136064, 177e00000 @ PE 12
111770500: global: Predictor bit: 0	 Opcode: 7
111770500: global: CGRA: NOOP.Execute()
111770500: global: Distance is: 0
111770500: system.cpu: Ins: 6306136064, 177e00000 @ PE 13
111770500: global: Predictor bit: 0	 Opcode: 7
111770500: global: CGRA: NOOP.Execute()
111770500: global: Distance is: 0
111770500: system.cpu: Ins: 6306136064, 177e00000 @ PE 14
111770500: global: Predictor bit: 0	 Opcode: 7
111770500: global: CGRA: NOOP.Execute()
111770500: global: Distance is: 0
111770500: system.cpu: Ins: 6306136064, 177e00000 @ PE 15
111770500: global: Predictor bit: 0	 Opcode: 7
[...]
120190000: system.cpu: Exiting schedule events
120190000: system.cpu: We are here after Execution
120190500: system.cpu: Inside CGRA Execution else statement.
120190500: system.cpu: Inside CGRA_Execution block.
120190500: system.cpu: 
CALL IN NOW CGRA_Execution.
120190500: system.cpu: 

 ~~~~~~ CGRA_Execution @ numCycles = 204 ~~~~~~~
120190500: global: 
******** DB INPUT2 ReadAddress = 3************
120190500: system.cpu: Ins: 4726980608, 119c00000 @ PE 0
120190500: global: Predictor bit: 1	 Opcode: 1
120190500: global: 
Input1 = 13	Input2 = 0
120190500: global: 
******** LDI IN THIS PE 13************
120190500: global: Distance is: 0
120190500: system.cpu: Ins: 4743757824, 11ac00000 @ PE 1
120190500: global: Predictor bit: 1	 Opcode: 1
120190500: global: 
Input1 = 16384	Input2 = 0
120190500: global: 
******** LDI IN THIS PE 16384************
120190500: global: Distance is: 0
120190500: system.cpu: Ins: 7550140416, 1c2060000 @ PE 2
120190500: global: Predictor bit: 0	 Opcode: 12
120190500: global: 
Input1 = 13	Input2 = 13
120190500: global: 
******** EQUALS IN THIS PE 1************
120190500: global: Controller_Reg reset
120190500: global: Distance is: 0
120190500: system.cpu: Ins: 6306136064, 177e00000 @ PE 3
120190500: global: Predictor bit: 0	 Opcode: 7
120190500: global: CGRA: NOOP.Execute()
120190500: global: Distance is: 0
120190500: system.cpu: Ins: 6306136064, 177e00000 @ PE 4
120190500: global: Predictor bit: 0	 Opcode: 7
120190500: global: CGRA: NOOP.Execute()
120190500: global: Distance is: 0
120190500: system.cpu: Ins: 6306136064, 177e00000 @ PE 5
120190500: global: Predictor bit: 0	 Opcode: 7
120190500: global: CGRA: NOOP.Execute()
120190500: global: Distance is: 0
120190500: system.cpu: Ins: 6306136064, 177e00000 @ PE 6
120190500: global: Predictor bit: 0	 Opcode: 7
120190500: global: CGRA: NOOP.Execute()
120190500: global: Distance is: 0
120190500: system.cpu: Ins: 6306136064, 177e00000 @ PE 7
120190500: global: Predictor bit: 0	 Opcode: 7
120190500: global: CGRA: NOOP.Execute()
120190500: global: Distance is: 0
120190500: system.cpu: Ins: 6306136064, 177e00000 @ PE 8
120190500: global: Predictor bit: 0	 Opcode: 7
120190500: global: CGRA: NOOP.Execute()
120190500: global: Distance is: 0
120190500: system.cpu: Ins: 6306136064, 177e00000 @ PE 9
120190500: global: Predictor bit: 0	 Opcode: 7
120190500: global: CGRA: NOOP.Execute()
120190500: global: Distance is: 0
120190500: system.cpu: Ins: 6306136064, 177e00000 @ PE 10
120190500: global: Predictor bit: 0	 Opcode: 7
120190500: global: CGRA: NOOP.Execute()
120190500: global: Distance is: 0
120190500: system.cpu: Ins: 6306136064, 177e00000 @ PE 11
120190500: global: Predictor bit: 0	 Opcode: 7
120190500: global: CGRA: NOOP.Execute()
120190500: global: Distance is: 0
120190500: system.cpu: Ins: 6306136064, 177e00000 @ PE 12
120190500: global: Predictor bit: 0	 Opcode: 7
120190500: global: CGRA: NOOP.Execute()
120190500: global: Distance is: 0
120190500: system.cpu: Ins: 6306136064, 177e00000 @ PE 13
120190500: global: Predictor bit: 0	 Opcode: 7
120190500: global: CGRA: NOOP.Execute()
120190500: global: Distance is: 0
120190500: system.cpu: Ins: 6306136064, 177e00000 @ PE 14
120190500: global: Predictor bit: 0	 Opcode: 7
120190500: global: CGRA: NOOP.Execute()
120190500: global: Distance is: 0
120190500: system.cpu: Ins: 6306136064, 177e00000 @ PE 15
120190500: global: Predictor bit: 0	 Opcode: 7
120190500: global: CGRA: NOOP.Execute()
120190500: global: Distance is: 0

************* MEM READ *************
Row: 0 - address: 632384 - data: 13
120190500: system.cpu: CGRA advanceTime complete.
120190500: system.cpu: *******IN ADVANCE PC******
120190500: system.cpu: build/ARM/cpu/atomiccgra/atomiccgra.cc,CGRA_advancePC,1759,PC:a7ad8
120190500: system.cpu: 
KERNEL->EPILOG
120190500: system.cpu: Passed Complete Drain().
120190500: system.cpu: Make latency status=1.
120190500: system.cpu: Inside status idle.
120190500: system.cpu: Exiting schedule events
120190500: system.cpu: We are here after Execution
120191000: system.cpu: Inside CGRA Execution else statement.
120191000: system.cpu: Inside CGRA_Execution block.
120191000: system.cpu: 
CALL IN NOW CGRA_Execution.
120191000: system.cpu: 

 ~~~~~~ CGRA_Execution @ numCycles = 206 ~~~~~~~
120191000: system.cpu: Ins: 6306136064, 177e00000 @ PE 0
120191000: global: Predictor bit: 0	 Opcode: 7
120191000: global: CGRA: NOOP.Execute()
120191000: global: Distance is: 0
120191000: system.cpu: Ins: 6306136064, 177e00000 @ PE 1
120191000: global: Predictor bit: 0	 Opcode: 7
120191000: global: CGRA: NOOP.Execute()
120191000: global: Distance is: 0
120191000: system.cpu: Ins: 6471827457, 181c04001 @ PE 2
120191000: global: Predictor bit: 0	 Opcode: 8
120191000: global: 
Input1 = 16384	Input2 = 1
120191000: global: 
******** ASL IN THIS PE 32768************
120191000: global: 
WRITE: REG NUMBER: 0 dist: 0
120191000: global: R0: 32768	R1: 0	R2: 0	R3: 13
120191000: global: 
WRITE: FPREG NUMBER: 0 dist: 0
120191000: global: FPR0: 32768	FPR1: 0	FPR2: 0	FPR3: 13
120191000: global: Writing output 32768 to register 0
120191000: global: Distance is: 0
120191000: system.cpu: Ins: 4341104641, 102c00001 @ PE 3
120191000: global: Predictor bit: 0	 Opcode: 0
120191000: global: 
Input1 = 13	Input2 = 1
120191000: global: 
******** SUM IN THIS PE 14************
120191000: global: Distance is: 0
120191000: system.cpu: Ins: 6306136064, 177e00000 @ PE 4
120191000: global: Predictor bit: 0	 Opcode: 7
120191000: global: CGRA: NOOP.Execute()
120191000: global: Distance is: 0
120191000: system.cpu: Ins: 6306136064, 177e00000 @ PE 5
120191000: global: Predictor bit: 0	 Opcode: 7
120191000: global: CGRA: NOOP.Execute()
120191000: global: Distance is: 0
120191000: system.cpu: Ins: 6306136064, 177e00000 @ PE 6
120191000: global: Predictor bit: 0	 Opcode: 7
120191000: global: CGRA: NOOP.Execute()
120191000: global: Distance is: 0
120191000: system.cpu: Ins: 6306136064, 177e00000 @ PE 7
120191000: global: Predictor bit: 0	 Opcode: 7
120191000: global: CGRA: NOOP.Execute()
120191000: global: Distance is: 0
120191000: system.cpu: Ins: 6306136064, 177e00000 @ PE 8
120191000: global: Predictor bit: 0	 Opcode: 7
120191000: global: CGRA: NOOP.Execute()
120191000: global: Distance is: 0
120191000: system.cpu: Ins: 6306136064, 177e00000 @ PE 9
120191000: global: Predictor bit: 0	 Opcode: 7
120191000: global: CGRA: NOOP.Execute()
120191000: global: Distance is: 0
120191000: system.cpu: Ins: 6306136064, 177e00000 @ PE 10
120191000: global: Predictor bit: 0	 Opcode: 7
120191000: global: CGRA: NOOP.Execute()
120191000: global: Distance is: 0
120191000: system.cpu: Ins: 6306136064, 177e00000 @ PE 11
120191000: global: Predictor bit: 0	 Opcode: 7
120191000: global: CGRA: NOOP.Execute()
120191000: global: Distance is: 0
120191000: system.cpu: Ins: 6306136064, 177e00000 @ PE 12
120191000: global: Predictor bit: 0	 Opcode: 7
120191000: global: CGRA: NOOP.Execute()
120191000: global: Distance is: 0
120191000: system.cpu: Ins: 6306136064, 177e00000 @ PE 13
120191000: global: Predictor bit: 0	 Opcode: 7
120191000: global: CGRA: NOOP.Execute()
120191000: global: Distance is: 0
120191000: system.cpu: Ins: 6306136064, 177e00000 @ PE 14
120191000: global: Predictor bit: 0	 Opcode: 7
120191000: global: CGRA: NOOP.Execute()
120191000: global: Distance is: 0
120191000: system.cpu: Ins: 6306136064, 177e00000 @ PE 15
120191000: global: Predictor bit: 0	 Opcode: 7
120191000: global: CGRA: NOOP.Execute()
120191000: global: Distance is: 0

************* MEM READ *************
Row: 0 - address: 632384 - data: 13
120191000: system.cpu: CGRA advanceTime complete.
120191000: system.cpu: *******IN ADVANCE PC******
120191000: system.cpu: build/ARM/cpu/atomiccgra/atomiccgra.cc,CGRA_advancePC,1759,PC:a6c48
120191000: system.cpu: Passed Complete Drain().
120191000: system.cpu: Make latency status=1.
120191000: system.cpu: Inside status idle.
120191000: system.cpu: Exiting schedule events
120191000: system.cpu: We are here after Execution
120191500: system.cpu: Inside CGRA Execution else statement.
120191500: system.cpu: Inside CGRA_Execution block.
120191500: system.cpu: 
CALL IN NOW CGRA_Execution.
120191500: system.cpu: 

 ~~~~~~ CGRA_Execution @ numCycles = 208 ~~~~~~~
120191500: global: 
******** DB INPUT2 ReadAddress = 3************
120191500: system.cpu: Ins: 6306136064, 177e00000 @ PE 0
120191500: global: Predictor bit: 0	 Opcode: 7
120191500: global: CGRA: NOOP.Execute()
120191500: global: Distance is: 0
120191500: system.cpu: Ins: 6306136064, 177e00000 @ PE 1
120191500: global: Predictor bit: 0	 Opcode: 7
120191500: global: CGRA: NOOP.Execute()
120191500: global: Distance is: 0
120191500: system.cpu: Ins: 7550140416, 1c2060000 @ PE 2
120191500: global: Predictor bit: 0	 Opcode: 12
120191500: global: 
Input1 = 14	Input2 = 13
120191500: global: 
******** EQUALS IN THIS PE 0************
120191500: global: Distance is: 0
120191500: system.cpu: Ins: 6306136064, 177e00000 @ PE 3
120191500: global: Predictor bit: 0	 Opcode: 7
120191500: global: CGRA: NOOP.Execute()
120191500: global: Distance is: 0
120191500: system.cpu: Ins: 6306136064, 177e00000 @ PE 4
120191500: global: Predictor bit: 0	 Opcode: 7
120191500: global: CGRA: NOOP.Execute()
120191500: global: Distance is: 0
120191500: system.cpu: Ins: 6306136064, 177e00000 @ PE 5
120191500: global: Predictor bit: 0	 Opcode: 7
120191500: global: CGRA: NOOP.Execute()
120191500: global: Distance is: 0
120191500: system.cpu: Ins: 6306136064, 177e00000 @ PE 6
120191500: global: Predictor bit: 0	 Opcode: 7
120191500: global: CGRA: NOOP.Execute()
120191500: global: Distance is: 0
120191500: system.cpu: Ins: 6306136064, 177e00000 @ PE 7
120191500: global: Predictor bit: 0	 Opcode: 7
120191500: global: CGRA: NOOP.Execute()
120191500: global: Distance is: 0
120191500: system.cpu: Ins: 6306136064, 177e00000 @ PE 8
120191500: global: Predictor bit: 0	 Opcode: 7
120191500: global: CGRA: NOOP.Execute()
120191500: global: Distance is: 0
120191500: system.cpu: Ins: 6306136064, 177e00000 @ PE 9
120191500: global: Predictor bit: 0	 Opcode: 7
120191500: global: CGRA: NOOP.Execute()
120191500: global: Distance is: 0
120191500: system.cpu: Ins: 6306136064, 177e00000 @ PE 10
120191500: global: Predictor bit: 0	 Opcode: 7
120191500: global: CGRA: NOOP.Execute()
120191500: global: Distance is: 0
120191500: system.cpu: Ins: 6306136064, 177e00000 @ PE 11
120191500: global: Predictor bit: 0	 Opcode: 7
120191500: global: CGRA: NOOP.Execute()
120191500: global: Distance is: 0
120191500: system.cpu: Ins: 6306136064, 177e00000 @ PE 12
120191500: global: Predictor bit: 0	 Opcode: 7
120191500: global: CGRA: NOOP.Execute()
120191500: global: Distance is: 0
120191500: system.cpu: Ins: 6306136064, 177e00000 @ PE 13
120191500: global: Predictor bit: 0	 Opcode: 7
120191500: global: CGRA: NOOP.Execute()
120191500: global: Distance is: 0
120191500: system.cpu: Ins: 6306136064, 177e00000 @ PE 14
120191500: global: Predictor bit: 0	 Opcode: 7
120191500: global: CGRA: NOOP.Execute()
120191500: global: Distance is: 0
120191500: system.cpu: Ins: 6306136064, 177e00000 @ PE 15
120191500: global: Predictor bit: 0	 Opcode: 7
120191500: global: CGRA: NOOP.Execute()
120191500: global: Distance is: 0

************* MEM READ *************
Row: 0 - address: 632384 - data: 13
120191500: system.cpu: CGRA advanceTime complete.
120191500: system.cpu: *******IN ADVANCE PC******
120191500: system.cpu: build/ARM/cpu/atomiccgra/atomiccgra.cc,CGRA_advancePC,1759,PC:a6cc8
120191500: system.cpu: Passed Complete Drain().
120191500: system.cpu: Make latency status=1.
120191500: system.cpu: Inside status idle.
120191500: system.cpu: Exiting schedule events
120191500: system.cpu: We are here after Execution
120192000: system.cpu: Inside CGRA Execution else statement.
120192000: system.cpu: Inside CGRA_Execution block.
120192000: system.cpu: 
CALL IN NOW CGRA_Execution.
120192000: system.cpu: 

 ~~~~~~ CGRA_Execution @ numCycles = 210 ~~~~~~~
120192000: global: 
******** DB INPUT1 ReadAddress = 1************
120192000: global: 
******** DB INPUT1 ReadAddress = 0************
120192000: system.cpu: Ins: 6052913156, 168c82004 @ PE 0
120192000: global: Predictor bit: 1	 Opcode: 6
120192000: global: 
Input1 = 632392	Input2 = 4
120192000: global: 
******** ADDRESS GENERATED IN THIS PE 632392************
120192000: global: 
*********Setting Address 9a648 ******
120192000: global: Distance is: 0
120192000: system.cpu: Ins: 6306136064, 177e00000 @ PE 1
120192000: global: Predictor bit: 0	 Opcode: 7
120192000: global: CGRA: NOOP.Execute()
120192000: global: Distance is: 0
120192000: system.cpu: Ins: 4307554304, 100c01000 @ PE 2
120192000: global: Predictor bit: 0	 Opcode: 0
120192000: global: 
Input1 = 32768	Input2 = 0
120192000: global: 
******** SUM IN THIS PE 32768************
120192000: global: 
******** DB Output 32768************
120192000: global: Distance is: 0
120192000: system.cpu: Ins: 6306136064, 177e00000 @ PE 3
120192000: global: Predictor bit: 0	 Opcode: 7
120192000: global: CGRA: NOOP.Execute()
120192000: global: Distance is: 0
120192000: system.cpu: Ins: 6306136064, 177e00000 @ PE 4
120192000: global: Predictor bit: 0	 Opcode: 7
120192000: global: CGRA: NOOP.Execute()
120192000: global: Distance is: 0
120192000: system.cpu: Ins: 6306136064, 177e00000 @ PE 5
120192000: global: Predictor bit: 0	 Opcode: 7
120192000: global: CGRA: NOOP.Execute()
120192000: global: Distance is: 0
120192000: system.cpu: Ins: 6306136064, 177e00000 @ PE 6
120192000: global: Predictor bit: 0	 Opcode: 7
120192000: global: CGRA: NOOP.Execute()
120192000: global: Distance is: 0
120192000: system.cpu: Ins: 6306136064, 177e00000 @ PE 7
120192000: global: Predictor bit: 0	 Opcode: 7
120192000: global: CGRA: NOOP.Execute()
120192000: global: Distance is: 0
120192000: system.cpu: Ins: 6306136064, 177e00000 @ PE 8
120192000: global: Predictor bit: 0	 Opcode: 7
120192000: global: CGRA: NOOP.Execute()
120192000: global: Distance is: 0
120192000: system.cpu: Ins: 6306136064, 177e00000 @ PE 9
120192000: global: Predictor bit: 0	 Opcode: 7
120192000: global: CGRA: NOOP.Execute()
120192000: global: Distance is: 0
120192000: system.cpu: Ins: 6306136064, 177e00000 @ PE 10
120192000: global: Predictor bit: 0	 Opcode: 7
120192000: global: CGRA: NOOP.Execute()
120192000: global: Distance is: 0
120192000: system.cpu: Ins: 6306136064, 177e00000 @ PE 11
120192000: global: Predictor bit: 0	 Opcode: 7
120192000: global: CGRA: NOOP.Execute()
120192000: global: Distance is: 0
120192000: system.cpu: Ins: 6306136064, 177e00000 @ PE 12
120192000: global: Predictor bit: 0	 Opcode: 7
120192000: global: CGRA: NOOP.Execute()
120192000: global: Distance is: 0
120192000: system.cpu: Ins: 6306136064, 177e00000 @ PE 13
120192000: global: Predictor bit: 0	 Opcode: 7
120192000: global: CGRA: NOOP.Execute()
120192000: global: Distance is: 0
120192000: system.cpu: Ins: 6306136064, 177e00000 @ PE 14
120192000: global: Predictor bit: 0	 Opcode: 7
120192000: global: CGRA: NOOP.Execute()
120192000: global: Distance is: 0
120192000: system.cpu: Ins: 6306136064, 177e00000 @ PE 15
120192000: global: Predictor bit: 0	 Opcode: 7
120192000: global: CGRA: NOOP.Execute()
120192000: global: Distance is: 0
120192000: system.cpu: In Memwrite with membus: 1
120192000: system.cpu: In writing INT 32768	 to address:9a648	 -- &Data: 0x5584413cc620	 and uint: 
120192000: system.cpu: CGRA advanceTime complete.
120192000: system.cpu: *******IN ADVANCE PC******
120192000: system.cpu: build/ARM/cpu/atomiccgra/atomiccgra.cc,CGRA_advancePC,1759,PC:a6d48
120192000: system.cpu: Passed Complete Drain().
120192000: system.cpu: Make latency status=1.
120192000: system.cpu: Inside status idle.
120192000: system.cpu: Exiting schedule events
120192000: system.cpu: We are here after Execution
120192500: system.cpu: Inside CGRA Execution else statement.
120192500: system.cpu: Inside CGRA_Execution block.
120192500: system.cpu: 
CALL IN NOW CGRA_Execution.
120192500: system.cpu: 

 ~~~~~~ CGRA_Execution @ numCycles = 212 ~~~~~~~
120192500: system.cpu: Ins: 6306136064, 177e00000 @ PE 0
120192500: global: Predictor bit: 0	 Opcode: 7
120192500: global: CGRA: NOOP.Execute()
120192500: global: Distance is: 0
120192500: system.cpu: Ins: 6306136064, 177e00000 @ PE 1
120192500: global: Predictor bit: 0	 Opcode: 7
120192500: global: CGRA: NOOP.Execute()
120192500: global: Distance is: 0
120192500: system.cpu: Ins: 6306136064, 177e00000 @ PE 2
120192500: global: Predictor bit: 0	 Opcode: 7
120192500: global: CGRA: NOOP.Execute()
120192500: global: Distance is: 0
120192500: system.cpu: Ins: 6306136064, 177e00000 @ PE 3
120192500: global: Predictor bit: 0	 Opcode: 7
120192500: global: CGRA: NOOP.Execute()
120192500: global: Distance is: 0
120192500: system.cpu: Ins: 6306136064, 177e00000 @ PE 4
120192500: global: Predictor bit: 0	 Opcode: 7
120192500: global: CGRA: NOOP.Execute()
120192500: global: Distance is: 0
120192500: system.cpu: Ins: 6306136064, 177e00000 @ PE 5
120192500: global: Predictor bit: 0	 Opcode: 7
120192500: global: CGRA: NOOP.Execute()
120192500: global: Distance is: 0
120192500: system.cpu: Ins: 6306136064, 177e00000 @ PE 6
120192500: global: Predictor bit: 0	 Opcode: 7
120192500: global: CGRA: NOOP.Execute()
120192500: global: Distance is: 0
120192500: system.cpu: Ins: 6306136064, 177e00000 @ PE 7
120192500: global: Predictor bit: 0	 Opcode: 7
120192500: global: CGRA: NOOP.Execute()
120192500: global: Distance is: 0
120192500: system.cpu: Ins: 6306136064, 177e00000 @ PE 8
120192500: global: Predictor bit: 0	 Opcode: 7
120192500: global: CGRA: NOOP.Execute()
120192500: global: Distance is: 0
120192500: system.cpu: Ins: 6306136064, 177e00000 @ PE 9
120192500: global: Predictor bit: 0	 Opcode: 7
120192500: global: CGRA: NOOP.Execute()
120192500: global: Distance is: 0
120192500: system.cpu: Ins: 6306136064, 177e00000 @ PE 10
120192500: global: Predictor bit: 0	 Opcode: 7
120192500: global: CGRA: NOOP.Execute()
120192500: global: Distance is: 0
120192500: system.cpu: Ins: 6306136064, 177e00000 @ PE 11
120192500: global: Predictor bit: 0	 Opcode: 7
120192500: global: CGRA: NOOP.Execute()
120192500: global: Distance is: 0
120192500: system.cpu: Ins: 6306136064, 177e00000 @ PE 12
120192500: global: Predictor bit: 0	 Opcode: 7
120192500: global: CGRA: NOOP.Execute()
120192500: global: Distance is: 0
120192500: system.cpu: Ins: 6306136064, 177e00000 @ PE 13
120192500: global: Predictor bit: 0	 Opcode: 7
120192500: global: CGRA: NOOP.Execute()
120192500: global: Distance is: 0
120192500: system.cpu: Ins: 6306136064, 177e00000 @ PE 14
120192500: global: Predictor bit: 0	 Opcode: 7
120192500: global: CGRA: NOOP.Execute()
120192500: global: Distance is: 0
120192500: system.cpu: Ins: 6306136064, 177e00000 @ PE 15
120192500: global: Predictor bit: 0	 Opcode: 7
120192500: global: CGRA: NOOP.Execute()
120192500: global: Distance is: 0
120192500: system.cpu: In Memwrite with membus: 1
120192500: system.cpu: In writing INT 32768	 to address:9a648	 -- &Data: 0x5584413cc620	 and uint: 
120192500: system.cpu: CGRA advanceTime complete.
120192500: system.cpu: *******IN ADVANCE PC******
120192500: system.cpu: build/ARM/cpu/atomiccgra/atomiccgra.cc,CGRA_advancePC,1759,PC:a6dc8
120192500: system.cpu: Passed Complete Drain().
120192500: system.cpu: Make latency status=1.
120192500: system.cpu: Inside status idle.
120192500: system.cpu: Exiting schedule events
120192500: system.cpu: We are here after Execution
120193000: system.cpu: Inside CGRA Execution else statement.
120193000: system.cpu: ************************PREPARING TO MOVE TO CPU************
120193000: system.cpu: newPC=683464, II=2, EPILog=4, Prolog=24, Len=0
120193000: system.cpu: **********************CGRA Execution is over**********************
120193000: system.cpu: ******REG R11= 16*********
120193000: system.cpu: AFTER COMPLETETION PC: 1110c
1000011001111001 = 98304

deleting cgra
Exiting @ tick 122068500 because exiting with last active thread context
