/home/local/ASUAD/quoclon1/publish_ccf/benchmarks/pow
16
Simulation for CGRA for 4 x 4 with 4 registers per PE
CPU frequency @ 2GHz
CGRA frequency @ 0.7GHz
CGRA4x4R4torus
Global frequency set at 1000000000000 ticks per second
warn: DRAM device capacity (8192 Mbytes) does not match the address range assigned (512 Mbytes)
0: system.remote_gdb: listening for remote gdb on port 7000
gem5 Simulator System.  http://gem5.org
gem5 is copyrighted software; use the --copyright option for details.

gem5 version 20.1.0.4
gem5 compiled Aug 20 2021 18:45:51
gem5 started Aug 24 2021 01:03:34
gem5 executing on en4181851l, pid 3064170
command line: /home/local/ASUAD/quoclon1/publish_ccf/gem5/build/ARM/gem5.opt --debug-flags=CGRA_Detailed,CGRA_Execute /home/local/ASUAD/quoclon1/publish_ccf/gem5/configs/example/se.py -n 1 --cpu-type CGRA4x4R4torus -c ./pow -o 16

**** REAL SIMULATION ****
warn: membus.slave is deprecated. `slave` is now called `cpu_side_ports`
warn: membus.slave is deprecated. `slave` is now called `cpu_side_ports`
warn: membus.slave is deprecated. `slave` is now called `cpu_side_ports`
warn: membus.slave is deprecated. `slave` is now called `cpu_side_ports`
warn: membus.slave is deprecated. `slave` is now called `cpu_side_ports`
warn: membus.master is deprecated. `master` is now called `mem_side_ports`
warn: No dot file generated. Please install pydot to generate the dot file and pdf.
info: Entering event queue @ 0.  Starting simulation...
info: Increasing stack size by one page.
warn: ignoring syscall mprotect(...)
createCGRA
checkTotalLoops
from cgra.c Initialize Parameters

**********EPISIZE 64*********

**********PROSIZE 576*********

**********KERNSIZE 32*********

******SIZE OF UNSIGNED LONG4*****

******SIZE OF UNSIGNED LONG LONG8*****

*******************before while loop**************

************XDIM and YDim are 4, 4
Loop Count: -2
From FILE: PROLOGPC= a4890, EPILOGPC=a4688,  KernelPC=a5a98
from cgra.c Initialize Parameters

**********EPISIZE 64*********

**********PROSIZE 352*********

**********KERNSIZE 32*********

******SIZE OF UNSIGNED LONG4*****

******SIZE OF UNSIGNED LONG LONG8*****

*******************before while loop**************

************XDIM and YDim are 4, 4
Loop Count: -2
From FILE: PROLOGPC= a5ee8, EPILOGPC=a5ce0,  KernelPC=a69f0
Main thread calling CGRA thread...
Base = 2 - Pow = 16


accelerateOnCGRA
configureCGRA

loopno = 2
Core will execute loop 2 on CGRA


runOnCGRA
63881000: system.cpu: CGRA PARAMETERS: PROLOG= 22, EPILOG=4, II=2, KernelCounter=-2
63881000: system.cpu: CGRA PARAMETERS: PROLOGPC= a5ee8, EPILOGPC=a5ce0,  KernelPC=a69f0
63881500: system.cpu: Inside CGRA Execution else statement.
63881500: system.cpu: Inside CGRA_Execution block.
63881500: system.cpu: 
CALL IN NOW CGRA_Execution.
63881500: system.cpu: 

 ~~~~~~ CGRA_Execution @ numCycles = 1 ~~~~~~~
63881500: global: 
******** DB INPUT2 ReadAddress = 0************
63881500: global: 
******** DB INPUT2 ReadAddress = 0************
63881500: global: 
******** DB INPUT2 ReadAddress = 0************
63881500: global: 
******** DB INPUT2 ReadAddress = 0************
63881500: global: 
******** DB INPUT2 ReadAddress = 0************
63881500: global: 
******** DB INPUT2 ReadAddress = 0************
63881500: global: 
******** DB INPUT2 ReadAddress = 0************
63881500: global: 
******** DB INPUT2 ReadAddress = 0************
63881500: global: 
******** DB INPUT2 ReadAddress = 0************
63881500: global: 
******** DB INPUT2 ReadAddress = 0************
63881500: global: 
******** DB INPUT2 ReadAddress = 0************
63881500: global: 
******** DB INPUT2 ReadAddress = 0************
63881500: global: 
******** DB INPUT2 ReadAddress = 0************
63881500: global: 
******** DB INPUT2 ReadAddress = 0************
63881500: global: 
******** DB INPUT2 ReadAddress = 0************
63881500: global: 
******** DB INPUT2 ReadAddress = 0************
63881500: system.cpu: Ins: 4529864704, 10e004000 @ PE 0
63881500: global: Predictor bit: 1	 Opcode: 0
63881500: global: 
Input1 = 0	Input2 = 0
63881500: global: 
******** Setting Configuration as 0************
63881500: global: 
************** WE *****************
63881500: global: Distance is: 0
63881500: system.cpu: Ins: 4529864704, 10e004000 @ PE 1
63881500: global: Predictor bit: 1	 Opcode: 0
63881500: global: 
Input1 = 0	Input2 = 0
63881500: global: 
******** Setting Configuration as 0************
63881500: global: 
************** WE *****************
63881500: global: Distance is: 0
63881500: system.cpu: Ins: 4529864704, 10e004000 @ PE 2
63881500: global: Predictor bit: 1	 Opcode: 0
63881500: global: 
Input1 = 0	Input2 = 0
63881500: global: 
******** Setting Configuration as 0************
63881500: global: 
************** WE *****************
63881500: global: Distance is: 0
63881500: system.cpu: Ins: 4529864704, 10e004000 @ PE 3
63881500: global: Predictor bit: 1	 Opcode: 0
63881500: global: 
Input1 = 0	Input2 = 0
63881500: global: 
******** Setting Configuration as 0************
63881500: global: 
************** WE *****************
63881500: global: Distance is: 0
63881500: system.cpu: Ins: 4529864704, 10e004000 @ PE 4
63881500: global: Predictor bit: 1	 Opcode: 0
63881500: global: 
Input1 = 0	Input2 = 0
63881500: global: 
******** Setting Configuration as 0************
63881500: global: 
************** WE *****************
63881500: global: Distance is: 0
63881500: system.cpu: Ins: 4529864704, 10e004000 @ PE 5
63881500: global: Predictor bit: 1	 Opcode: 0
63881500: global: 
Input1 = 0	Input2 = 0
63881500: global: 
******** Setting Configuration as 0************
63881500: global: 
************** WE *****************
63881500: global: Distance is: 0
63881500: system.cpu: Ins: 4529864704, 10e004000 @ PE 6
63881500: global: Predictor bit: 1	 Opcode: 0
63881500: global: 
Input1 = 0	Input2 = 0
63881500: global: 
******** Setting Configuration as 0************
63881500: global: 
************** WE *****************
63881500: global: Distance is: 0
63881500: system.cpu: Ins: 4529864704, 10e004000 @ PE 7
63881500: global: Predictor bit: 1	 Opcode: 0
63881500: global: 
Input1 = 0	Input2 = 0
63881500: global: 
******** Setting Configuration as 0************
63881500: global: 
************** WE *****************
63881500: global: Distance is: 0
63881500: system.cpu: Ins: 4529864704, 10e004000 @ PE 8
63881500: global: Predictor bit: 1	 Opcode: 0
63881500: global: 
Input1 = 0	Input2 = 0
63881500: global: 
******** Setting Configuration as 0************
63881500: global: 
************** WE *****************
63881500: global: Distance is: 0
63881500: system.cpu: Ins: 4529864704, 10e004000 @ PE 9
63881500: global: Predictor bit: 1	 Opcode: 0
63881500: global: 
Input1 = 0	Input2 = 0
63881500: global: 
******** Setting Configuration as 0************
63881500: global: 
************** WE *****************
63881500: global: Distance is: 0
63881500: system.cpu: Ins: 4529864704, 10e004000 @ PE 10
63881500: global: Predictor bit: 1	 Opcode: 0
63881500: global: 
Input1 = 0	Input2 = 0
63881500: global: 
******** Setting Configuration as 0************
63881500: global: 
************** WE *****************
63881500: global: Distance is: 0
63881500: system.cpu: Ins: 4529864704, 10e004000 @ PE 11
63881500: global: Predictor bit: 1	 Opcode: 0
63881500: global: 
Input1 = 0	Input2 = 0
63881500: global: 
******** Setting Configuration as 0************
63881500: global: 
************** WE *****************
63881500: global: Distance is: 0
63881500: system.cpu: Ins: 4529864704, 10e004000 @ PE 12
63881500: global: Predictor bit: 1	 Opcode: 0
63881500: global: 
Input1 = 0	Input2 = 0
63881500: global: 
******** Setting Configuration as 0************
63881500: global: 
************** WE *****************
63881500: global: Distance is: 0
63881500: system.cpu: Ins: 4529864704, 10e004000 @ PE 13
63881500: global: Predictor bit: 1	 Opcode: 0
63881500: global: 
Input1 = 0	Input2 = 0
63881500: global: 
******** Setting Configuration as 0************
63881500: global: 
************** WE *****************
63881500: global: Distance is: 0
63881500: system.cpu: Ins: 4529864704, 10e004000 @ PE 14
63881500: global: Predictor bit: 1	 Opcode: 0
63881500: global: 
Input1 = 0	Input2 = 0
63881500: global: 
******** Setting Configuration as 0************
63881500: global: 
************** WE *****************
63881500: global: Distance is: 0
63881500: system.cpu: Ins: 4529864704, 10e004000 @ PE 15
63881500: global: Predictor bit: 1	 Opcode: 0
63881500: global: 
Input1 = 0	Input2 = 0
63881500: global: 
******** Setting Configuration as 0************
63881500: global: 
************** WE *****************
63881500: global: Distance is: 0
63881500: system.cpu: CGRA advanceTime complete.
63881500: system.cpu: *******IN ADVANCE PC******
63881500: system.cpu: build/ARM/cpu/atomiccgra/atomiccgra.cc,CGRA_advancePC,1759,PC:a5ee8
63881500: system.cpu: Passed Complete Drain().
63881500: system.cpu: Make latency status=1.
63881500: system.cpu: Inside status idle.
63881500: system.cpu: Exiting schedule events
63881500: system.cpu: We are here after Execution
63882000: system.cpu: Inside CGRA Execution else statement.
63882000: system.cpu: Inside CGRA_Execution block.
63882000: system.cpu: 
CALL IN NOW CGRA_Execution.
63882000: system.cpu: 

 ~~~~~~ CGRA_Execution @ numCycles = 3 ~~~~~~~
63882000: global: 
******** DB INPUT2 ReadAddress = 0************
63882000: global: 
******** DB INPUT2 ReadAddress = 0************
63882000: system.cpu: Ins: 4798332929, 11e00c001 @ PE 0
63882000: global: Predictor bit: 1	 Opcode: 1
63882000: global: 
Input1 = 1	Input2 = 0
63882000: global: 
******** LDI IN THIS PE 1************
63882000: global: 
************** WE *****************
63882000: global: 
WRITE: REG NUMBER: 1 dist: 0
63882000: global: R0: 0	R1: 1	R2: 0	R3: 0
63882000: global: 
WRITE: FPREG NUMBER: 1 dist: 0
63882000: global: FPR0: 0	FPR1: 1	FPR2: 0	FPR3: 0
63882000: global: Writing output 1 to register 1
63882000: global: Distance is: 0
63882000: system.cpu: Ins: 6306136064, 177e00000 @ PE 1
63882000: global: Predictor bit: 0	 Opcode: 7
63882000: global: CGRA: NOOP.Execute()
63882000: global: Distance is: 0
63882000: system.cpu: Ins: 4798301768, 11e004648 @ PE 2
63882000: global: Predictor bit: 1	 Opcode: 1
63882000: global: 
Input1 = 1608	Input2 = 0
63882000: global: 
******** LDI IN THIS PE 1608************
63882000: global: 
************** WE *****************
63882000: global: 
WRITE: REG NUMBER: 0 dist: 0
63882000: global: R0: 1608	R1: 0	R2: 0	R3: 0
63882000: global: 
WRITE: FPREG NUMBER: 0 dist: 0
63882000: global: FPR0: 1608	FPR1: 0	FPR2: 0	FPR3: 0
63882000: global: Writing output 1608 to register 0
63882000: global: Distance is: 0
63882000: system.cpu: Ins: 6306136064, 177e00000 @ PE 3
63882000: global: Predictor bit: 0	 Opcode: 7
63882000: global: CGRA: NOOP.Execute()
63882000: global: Distance is: 0
63882000: system.cpu: Ins: 6306136064, 177e00000 @ PE 4
63882000: global: Predictor bit: 0	 Opcode: 7
63882000: global: CGRA: NOOP.Execute()
63882000: global: Distance is: 0
63882000: system.cpu: Ins: 6306136064, 177e00000 @ PE 5
63882000: global: Predictor bit: 0	 Opcode: 7
63882000: global: CGRA: NOOP.Execute()
63882000: global: Distance is: 0
63882000: system.cpu: Ins: 6306136064, 177e00000 @ PE 6
63882000: global: Predictor bit: 0	 Opcode: 7
63882000: global: CGRA: NOOP.Execute()
63882000: global: Distance is: 0
63882000: system.cpu: Ins: 6306136064, 177e00000 @ PE 7
63882000: global: Predictor bit: 0	 Opcode: 7
63882000: global: CGRA: NOOP.Execute()
63882000: global: Distance is: 0
63882000: system.cpu: Ins: 6306136064, 177e00000 @ PE 8
63882000: global: Predictor bit: 0	 Opcode: 7
63882000: global: CGRA: NOOP.Execute()
63882000: global: Distance is: 0
63882000: system.cpu: Ins: 6306136064, 177e00000 @ PE 9
63882000: global: Predictor bit: 0	 Opcode: 7
63882000: global: CGRA: NOOP.Execute()
63882000: global: Distance is: 0
63882000: system.cpu: Ins: 6306136064, 177e00000 @ PE 10
63882000: global: Predictor bit: 0	 Opcode: 7
63882000: global: CGRA: NOOP.Execute()
63882000: global: Distance is: 0
63882000: system.cpu: Ins: 6306136064, 177e00000 @ PE 11
63882000: global: Predictor bit: 0	 Opcode: 7
63882000: global: CGRA: NOOP.Execute()
63882000: global: Distance is: 0
63882000: system.cpu: Ins: 6306136064, 177e00000 @ PE 12
63882000: global: Predictor bit: 0	 Opcode: 7
63882000: global: CGRA: NOOP.Execute()
63882000: global: Distance is: 0
63882000: system.cpu: Ins: 6306136064, 177e00000 @ PE 13
63882000: global: Predictor bit: 0	 Opcode: 7
63882000: global: CGRA: NOOP.Execute()
63882000: global: Distance is: 0
63882000: system.cpu: Ins: 6306136064, 177e00000 @ PE 14
63882000: global: Predictor bit: 0	 Opcode: 7
63882000: global: CGRA: NOOP.Execute()
63882000: global: Distance is: 0
63882000: system.cpu: Ins: 6306136064, 177e00000 @ PE 15
63882000: global: Predictor bit: 0	 Opcode: 7
63882000: global: CGRA: NOOP.Execute()
63882000: global: Distance is: 0
63882000: system.cpu: CGRA advanceTime complete.
63882000: system.cpu: *******IN ADVANCE PC******
63882000: system.cpu: build/ARM/cpu/atomiccgra/atomiccgra.cc,CGRA_advancePC,1759,PC:a5f68
63882000: system.cpu: Passed Complete Drain().
63882000: system.cpu: Make latency status=1.
63882000: system.cpu: Inside status idle.
63882000: system.cpu: Exiting schedule events
63882000: system.cpu: We are here after Execution
63882500: system.cpu: Inside CGRA Execution else statement.
63882500: system.cpu: Inside CGRA_Execution block.
63882500: system.cpu: 
CALL IN NOW CGRA_Execution.
63882500: system.cpu: 

 ~~~~~~ CGRA_Execution @ numCycles = 5 ~~~~~~~
63882500: global: 
******** DB INPUT2 ReadAddress = 0************
63882500: global: 
******** DB INPUT2 ReadAddress = 0************
63882500: global: 
******** DB INPUT1 ReadAddress = 0************
63882500: global: 
******** DB INPUT2 ReadAddress = 0************
63882500: global: 
******** DB INPUT1 ReadAddress = 0************
63882500: global: 
******** DB INPUT2 ReadAddress = 0************
63882500: global: 
******** DB INPUT1 ReadAddress = 0************
63882500: global: 
******** DB INPUT2 ReadAddress = 0************
63882500: global: 
******** DB INPUT1 ReadAddress = 0************
63882500: global: 
******** DB INPUT2 ReadAddress = 0************
63882500: global: 
******** DB INPUT1 ReadAddress = 0************
63882500: global: 
******** DB INPUT2 ReadAddress = 0************
63882500: global: 
******** DB INPUT1 ReadAddress = 0************
63882500: global: 
******** DB INPUT2 ReadAddress = 0************
63882500: global: 
******** DB INPUT1 ReadAddress = 0************
63882500: global: 
******** DB INPUT2 ReadAddress = 0************
63882500: global: 
******** DB INPUT1 ReadAddress = 0************
63882500: global: 
******** DB INPUT2 ReadAddress = 0************
63882500: global: 
******** DB INPUT1 ReadAddress = 0************
63882500: global: 
******** DB INPUT2 ReadAddress = 0************
63882500: global: 
******** DB INPUT1 ReadAddress = 0************
63882500: global: 
******** DB INPUT2 ReadAddress = 0************
63882500: global: 
******** DB INPUT1 ReadAddress = 0************
63882500: global: 
******** DB INPUT2 ReadAddress = 0************
63882500: global: 
******** DB INPUT1 ReadAddress = 0************
63882500: global: 
******** DB INPUT2 ReadAddress = 0************
63882500: global: 
******** DB INPUT1 ReadAddress = 0************
63882500: global: 
******** DB INPUT2 ReadAddress = 0************
63882500: system.cpu: Ins: 5066768384, 12e00c000 @ PE 0
63882500: global: Predictor bit: 1	 Opcode: 2
63882500: global: 
Input1 = 0	Input2 = 0
63882500: global: 
******** LDMI IN THIS PE 0************
63882500: global: 
************** WE *****************
63882500: global: 
WRITE: REG NUMBER: 1 dist: 0
63882500: global: R0: 0	R1: 1	R2: 0	R3: 0
63882500: global: 
WRITE: FPREG NUMBER: 1 dist: 0
63882500: global: FPR0: 0	FPR1: 1	FPR2: 0	FPR3: 0
63882500: global: Writing output 1 to register 1
63882500: global: Distance is: 0
63882500: system.cpu: Ins: 6306136064, 177e00000 @ PE 1
63882500: global: Predictor bit: 0	 Opcode: 7
63882500: global: CGRA: NOOP.Execute()
63882500: global: Distance is: 0
63882500: system.cpu: Ins: 5066735770, 12e00409a @ PE 2
63882500: global: Predictor bit: 1	 Opcode: 2
63882500: global: 
Input1 = 154	Input2 = 1608
63882500: global: 
******** LDMI IN THIS PE 154************
63882500: global: 
************** WE *****************
63882500: global: 
WRITE: REG NUMBER: 0 dist: 0
63882500: global: R0: 632392	R1: 0	R2: 0	R3: 0
63882500: global: 
WRITE: FPREG NUMBER: 0 dist: 0
63882500: global: FPR0: 632392	FPR1: 0	FPR2: 0	FPR3: 0
63882500: global: Writing output 632392 to register 0
63882500: global: Distance is: 0
63882500: system.cpu: Ins: 0, 0 @ PE 3
63882500: global: Predictor bit: 0	 Opcode: 0
63882500: global: 
Input1 = 0	Input2 = 0
63882500: global: 
******** SUM IN THIS PE 0************
63882500: global: Distance is: 0
63882500: system.cpu: Ins: 0, 0 @ PE 4
63882500: global: Predictor bit: 0	 Opcode: 0
63882500: global: 
Input1 = 0	Input2 = 0
63882500: global: 
******** SUM IN THIS PE 0************
63882500: global: Distance is: 0
63882500: system.cpu: Ins: 0, 0 @ PE 5
63882500: global: Predictor bit: 0	 Opcode: 0
63882500: global: 
Input1 = 0	Input2 = 0
63882500: global: 
******** SUM IN THIS PE 0************
63882500: global: Distance is: 0
63882500: system.cpu: Ins: 0, 0 @ PE 6
63882500: global: Predictor bit: 0	 Opcode: 0
63882500: global: 
Input1 = 0	Input2 = 0
63882500: global: 
******** SUM IN THIS PE 0************
63882500: global: Distance is: 0
63882500: system.cpu: Ins: 0, 0 @ PE 7
63882500: global: Predictor bit: 0	 Opcode: 0
63882500: global: 
Input1 = 0	Input2 = 0
63882500: global: 
******** SUM IN THIS PE 0************
63882500: global: Distance is: 0
63882500: system.cpu: Ins: 0, 0 @ PE 8
63882500: global: Predictor bit: 0	 Opcode: 0
63882500: global: 
Input1 = 0	Input2 = 0
63882500: global: 
******** SUM IN THIS PE 0************
63882500: global: Distance is: 0
63882500: system.cpu: Ins: 0, 0 @ PE 9
63882500: global: Predictor bit: 0	 Opcode: 0
63882500: global: 
Input1 = 0	Input2 = 0
63882500: global: 
******** SUM IN THIS PE 0************
63882500: global: Distance is: 0
63882500: system.cpu: Ins: 0, 0 @ PE 10
63882500: global: Predictor bit: 0	 Opcode: 0
63882500: global: 
Input1 = 0	Input2 = 0
63882500: global: 
******** SUM IN THIS PE 0************
63882500: global: Distance is: 0
63882500: system.cpu: Ins: 0, 0 @ PE 11
63882500: global: Predictor bit: 0	 Opcode: 0
63882500: global: 
Input1 = 0	Input2 = 0
63882500: global: 
******** SUM IN THIS PE 0************
63882500: global: Distance is: 0
63882500: system.cpu: Ins: 0, 0 @ PE 12
63882500: global: Predictor bit: 0	 Opcode: 0
63882500: global: 
Input1 = 0	Input2 = 0
63882500: global: 
******** SUM IN THIS PE 0************
63882500: global: Distance is: 0
63882500: system.cpu: Ins: 0, 0 @ PE 13
63882500: global: Predictor bit: 0	 Opcode: 0
63882500: global: 
Input1 = 0	Input2 = 0
63882500: global: 
******** SUM IN THIS PE 0************
63882500: global: Distance is: 0
63882500: system.cpu: Ins: 0, 0 @ PE 14
63882500: global: Predictor bit: 0	 Opcode: 0
63882500: global: 
Input1 = 0	Input2 = 0
63882500: global: 
******** SUM IN THIS PE 0************
63882500: global: Distance is: 0
63882500: system.cpu: Ins: 0, 0 @ PE 15
63882500: global: Predictor bit: 0	 Opcode: 0
63882500: global: 
Input1 = 0	Input2 = 0
63882500: global: 
******** SUM IN THIS PE 0************
63882500: global: Distance is: 0
63882500: system.cpu: CGRA advanceTime complete.
63882500: system.cpu: *******IN ADVANCE PC******
63882500: system.cpu: build/ARM/cpu/atomiccgra/atomiccgra.cc,CGRA_advancePC,1759,PC:a5fe8
63882500: system.cpu: Passed Complete Drain().
63882500: system.cpu: Make latency status=1.
63882500: system.cpu: Inside status idle.
63882500: system.cpu: Exiting schedule events
63882500: system.cpu: We are here after Execution
63883000: system.cpu: Inside CGRA Execution else statement.
63883000: system.cpu: Inside CGRA_Execution block.
63883000: system.cpu: 
CALL IN NOW CGRA_Execution.
63883000: system.cpu: 

 ~~~~~~ CGRA_Execution @ numCycles = 7 ~~~~~~~
63883000: global: 
******** DB INPUT2 ReadAddress = 0************
63883000: global: 
******** DB INPUT2 ReadAddress = 0************
63883000: system.cpu: Ins: 5335203840, 13e00c000 @ PE 0
63883000: global: Predictor bit: 1	 Opcode: 3
63883000: global: 
Input1 = 0	Input2 = 0
63883000: global: 
******** LDUI IN THIS PE 0************
63883000: global: 
************** WE *****************
63883000: global: 
WRITE: REG NUMBER: 1 dist: 0
63883000: global: R0: 0	R1: 1	R2: 0	R3: 0
63883000: global: 
WRITE: FPREG NUMBER: 1 dist: 0
63883000: global: FPR0: 0	FPR1: 1	FPR2: 0	FPR3: 0
63883000: global: Writing output 1 to register 1
63883000: global: Distance is: 0
63883000: system.cpu: Ins: 6306136064, 177e00000 @ PE 1
63883000: global: Predictor bit: 0	 Opcode: 7
63883000: global: CGRA: NOOP.Execute()
63883000: global: Distance is: 0
63883000: system.cpu: Ins: 5335171072, 13e004000 @ PE 2
63883000: global: Predictor bit: 1	 Opcode: 3
63883000: global: 
Input1 = 0	Input2 = 632392
63883000: global: 
******** LDUI IN THIS PE 0************
63883000: global: 
************** WE *****************
63883000: global: 
WRITE: REG NUMBER: 0 dist: 0
63883000: global: R0: 632392	R1: 0	R2: 0	R3: 0
63883000: global: 
WRITE: FPREG NUMBER: 0 dist: 0
63883000: global: FPR0: 632392	FPR1: 0	FPR2: 0	FPR3: 0
63883000: global: Writing output 632392 to register 0
63883000: global: Distance is: 0
63883000: system.cpu: Ins: 6306136064, 177e00000 @ PE 3
63883000: global: Predictor bit: 0	 Opcode: 7
63883000: global: CGRA: NOOP.Execute()
63883000: global: Distance is: 0
63883000: system.cpu: Ins: 6306136064, 177e00000 @ PE 4
63883000: global: Predictor bit: 0	 Opcode: 7
63883000: global: CGRA: NOOP.Execute()
63883000: global: Distance is: 0
63883000: system.cpu: Ins: 6306136064, 177e00000 @ PE 5
63883000: global: Predictor bit: 0	 Opcode: 7
63883000: global: CGRA: NOOP.Execute()
63883000: global: Distance is: 0
63883000: system.cpu: Ins: 6306136064, 177e00000 @ PE 6
63883000: global: Predictor bit: 0	 Opcode: 7
63883000: global: CGRA: NOOP.Execute()
63883000: global: Distance is: 0
63883000: system.cpu: Ins: 6306136064, 177e00000 @ PE 7
63883000: global: Predictor bit: 0	 Opcode: 7
63883000: global: CGRA: NOOP.Execute()
63883000: global: Distance is: 0
63883000: system.cpu: Ins: 6306136064, 177e00000 @ PE 8
63883000: global: Predictor bit: 0	 Opcode: 7
63883000: global: CGRA: NOOP.Execute()
63883000: global: Distance is: 0
63883000: system.cpu: Ins: 6306136064, 177e00000 @ PE 9
63883000: global: Predictor bit: 0	 Opcode: 7
63883000: global: CGRA: NOOP.Execute()
63883000: global: Distance is: 0
63883000: system.cpu: Ins: 6306136064, 177e00000 @ PE 10
63883000: global: Predictor bit: 0	 Opcode: 7
63883000: global: CGRA: NOOP.Execute()
63883000: global: Distance is: 0
63883000: system.cpu: Ins: 6306136064, 177e00000 @ PE 11
63883000: global: Predictor bit: 0	 Opcode: 7
63883000: global: CGRA: NOOP.Execute()
63883000: global: Distance is: 0
63883000: system.cpu: Ins: 6306136064, 177e00000 @ PE 12
63883000: global: Predictor bit: 0	 Opcode: 7
63883000: global: CGRA: NOOP.Execute()
63883000: global: Distance is: 0
63883000: system.cpu: Ins: 6306136064, 177e00000 @ PE 13
63883000: global: Predictor bit: 0	 Opcode: 7
63883000: global: CGRA: NOOP.Execute()
63883000: global: Distance is: 0
63883000: system.cpu: Ins: 6306136064, 177e00000 @ PE 14
63883000: global: Predictor bit: 0	 Opcode: 7
63883000: global: CGRA: NOOP.Execute()
63883000: global: Distance is: 0
63883000: system.cpu: Ins: 6306136064, 177e00000 @ PE 15
63883000: global: Predictor bit: 0	 Opcode: 7
63883000: global: CGRA: NOOP.Execute()
63883000: global: Distance is: 0
63883000: system.cpu: CGRA advanceTime complete.
63883000: system.cpu: *******IN ADVANCE PC******
63883000: system.cpu: build/ARM/cpu/atomiccgra/atomiccgra.cc,CGRA_advancePC,1759,PC:a6068
63883000: system.cpu: Passed Complete Drain().
63883000: system.cpu: Make latency status=1.
63883000: system.cpu: Inside status idle.
63883000: system.cpu: Exiting schedule events
63883000: system.cpu: We are here after Execution
63883500: system.cpu: Inside CGRA Execution else statement.
63883500: system.cpu: Inside CGRA_Execution block.
63883500: system.cpu: 
CALL IN NOW CGRA_Execution.
63883500: system.cpu: 

 ~~~~~~ CGRA_Execution @ numCycles = 9 ~~~~~~~
63883500: global: 
******** DB INPUT2 ReadAddress = 0************
63883500: global: 
******** DB INPUT1 ReadAddress = 0************
63883500: system.cpu: Ins: 4798365698, 11e014002 @ PE 0
63883500: global: Predictor bit: 1	 Opcode: 1
63883500: global: 
Input1 = 2	Input2 = 0
63883500: global: 
******** LDI IN THIS PE 2************
63883500: global: 
************** WE *****************
63883500: global: 
WRITE: REG NUMBER: 2 dist: 0
63883500: global: R0: 0	R1: 1	R2: 2	R3: 0
63883500: global: 
WRITE: FPREG NUMBER: 2 dist: 0
63883500: global: FPR0: 0	FPR1: 1	FPR2: 2	FPR3: 0
63883500: global: Writing output 2 to register 2
63883500: global: Distance is: 0
63883500: system.cpu: Ins: 6306136064, 177e00000 @ PE 1
63883500: global: Predictor bit: 0	 Opcode: 7
63883500: global: CGRA: NOOP.Execute()
63883500: global: Distance is: 0
63883500: system.cpu: Ins: 6052388868, 168c02004 @ PE 2
63883500: global: Predictor bit: 1	 Opcode: 6
63883500: global: 
Input1 = 632392	Input2 = 4
63883500: global: 
******** ADDRESS GENERATED IN THIS PE 632392************
63883500: global: 
*********Setting Address 9a648 ******
63883500: global: Distance is: 0
63883500: system.cpu: Ins: 6306136064, 177e00000 @ PE 3
63883500: global: Predictor bit: 0	 Opcode: 7
63883500: global: CGRA: NOOP.Execute()
63883500: global: Distance is: 0
63883500: system.cpu: Ins: 6306136064, 177e00000 @ PE 4
63883500: global: Predictor bit: 0	 Opcode: 7
63883500: global: CGRA: NOOP.Execute()
63883500: global: Distance is: 0
63883500: system.cpu: Ins: 6306136064, 177e00000 @ PE 5
63883500: global: Predictor bit: 0	 Opcode: 7
63883500: global: CGRA: NOOP.Execute()
63883500: global: Distance is: 0
63883500: system.cpu: Ins: 6306136064, 177e00000 @ PE 6
63883500: global: Predictor bit: 0	 Opcode: 7
63883500: global: CGRA: NOOP.Execute()
63883500: global: Distance is: 0
63883500: system.cpu: Ins: 6306136064, 177e00000 @ PE 7
63883500: global: Predictor bit: 0	 Opcode: 7
63883500: global: CGRA: NOOP.Execute()
63883500: global: Distance is: 0
63883500: system.cpu: Ins: 6306136064, 177e00000 @ PE 8
63883500: global: Predictor bit: 0	 Opcode: 7
63883500: global: CGRA: NOOP.Execute()
63883500: global: Distance is: 0
63883500: system.cpu: Ins: 6306136064, 177e00000 @ PE 9
63883500: global: Predictor bit: 0	 Opcode: 7
63883500: global: CGRA: NOOP.Execute()
63883500: global: Distance is: 0
63883500: system.cpu: Ins: 6306136064, 177e00000 @ PE 10
63883500: global: Predictor bit: 0	 Opcode: 7
63883500: global: CGRA: NOOP.Execute()
63883500: global: Distance is: 0
63883500: system.cpu: Ins: 6306136064, 177e00000 @ PE 11
63883500: global: Predictor bit: 0	 Opcode: 7
63883500: global: CGRA: NOOP.Execute()
63883500: global: Distance is: 0
63883500: system.cpu: Ins: 6306136064, 177e00000 @ PE 12
63883500: global: Predictor bit: 0	 Opcode: 7
63883500: global: CGRA: NOOP.Execute()
63883500: global: Distance is: 0
63883500: system.cpu: Ins: 6306136064, 177e00000 @ PE 13
63883500: global: Predictor bit: 0	 Opcode: 7
63883500: global: CGRA: NOOP.Execute()
63883500: global: Distance is: 0
63883500: system.cpu: Ins: 6306136064, 177e00000 @ PE 14
63883500: global: Predictor bit: 0	 Opcode: 7
63883500: global: CGRA: NOOP.Execute()
63883500: global: Distance is: 0
63883500: system.cpu: Ins: 6306136064, 177e00000 @ PE 15
63883500: global: Predictor bit: 0	 Opcode: 7
63883500: global: CGRA: NOOP.Execute()
63883500: global: Distance is: 0

************* MEM READ *************
Row: 0 - address: 632392 - data: 15
63883500: system.cpu: CGRA advanceTime complete.
63883500: system.cpu: *******IN ADVANCE PC******
63883500: system.cpu: build/ARM/cpu/atomiccgra/atomiccgra.cc,CGRA_advancePC,1759,PC:a60e8
63883500: system.cpu: Passed Complete Drain().
63883500: system.cpu: Make latency status=1.
63883500: system.cpu: Inside status idle.
63883500: system.cpu: Exiting schedule events
63883500: system.cpu: We are here after Execution
63884000: system.cpu: Inside CGRA Execution else statement.
63884000: system.cpu: Inside CGRA_Execution block.
63884000: system.cpu: 
CALL IN NOW CGRA_Execution.
63884000: system.cpu: 

 ~~~~~~ CGRA_Execution @ numCycles = 11 ~~~~~~~
63884000: global: 
******** DB INPUT2 ReadAddress = 0************
63884000: global: 
******** DB INPUT1 = 15************
63884000: system.cpu: Ins: 5066801152, 12e014000 @ PE 0
63884000: global: Predictor bit: 1	 Opcode: 2
63884000: global: 
Input1 = 0	Input2 = 0
63884000: global: 
******** LDMI IN THIS PE 0************
63884000: global: 
************** WE *****************
63884000: global: 
WRITE: REG NUMBER: 2 dist: 0
63884000: global: R0: 0	R1: 1	R2: 2	R3: 0
63884000: global: 
WRITE: FPREG NUMBER: 2 dist: 0
63884000: global: FPR0: 0	FPR1: 1	FPR2: 2	FPR3: 0
63884000: global: Writing output 2 to register 2
63884000: global: Distance is: 0
63884000: system.cpu: Ins: 6306136064, 177e00000 @ PE 1
63884000: global: Predictor bit: 0	 Opcode: 7
63884000: global: CGRA: NOOP.Execute()
63884000: global: Distance is: 0
63884000: system.cpu: Ins: 4391452672, 105c04000 @ PE 2
63884000: global: Predictor bit: 0	 Opcode: 0
63884000: global: 
Input1 = 15	Input2 = 0
63884000: global: 
******** SUM IN THIS PE 15************
63884000: global: 
WRITE: REG NUMBER: 0 dist: 0
63884000: global: R0: 15	R1: 0	R2: 0	R3: 0
63884000: global: 
WRITE: FPREG NUMBER: 0 dist: 0
63884000: global: FPR0: 15	FPR1: 0	FPR2: 0	FPR3: 0
63884000: global: Writing output 15 to register 0
63884000: global: Distance is: 0
63884000: system.cpu: Ins: 6306136064, 177e00000 @ PE 3
63884000: global: Predictor bit: 0	 Opcode: 7
63884000: global: CGRA: NOOP.Execute()
63884000: global: Distance is: 0
63884000: system.cpu: Ins: 6306136064, 177e00000 @ PE 4
63884000: global: Predictor bit: 0	 Opcode: 7
63884000: global: CGRA: NOOP.Execute()
63884000: global: Distance is: 0
63884000: system.cpu: Ins: 6306136064, 177e00000 @ PE 5
63884000: global: Predictor bit: 0	 Opcode: 7
63884000: global: CGRA: NOOP.Execute()
63884000: global: Distance is: 0
63884000: system.cpu: Ins: 6306136064, 177e00000 @ PE 6
63884000: global: Predictor bit: 0	 Opcode: 7
63884000: global: CGRA: NOOP.Execute()
63884000: global: Distance is: 0
63884000: system.cpu: Ins: 6306136064, 177e00000 @ PE 7
63884000: global: Predictor bit: 0	 Opcode: 7
63884000: global: CGRA: NOOP.Execute()
63884000: global: Distance is: 0
63884000: system.cpu: Ins: 6306136064, 177e00000 @ PE 8
63884000: global: Predictor bit: 0	 Opcode: 7
63884000: global: CGRA: NOOP.Execute()
63884000: global: Distance is: 0
63884000: system.cpu: Ins: 6306136064, 177e00000 @ PE 9
63884000: global: Predictor bit: 0	 Opcode: 7
63884000: global: CGRA: NOOP.Execute()
63884000: global: Distance is: 0
63884000: system.cpu: Ins: 6306136064, 177e00000 @ PE 10
63884000: global: Predictor bit: 0	 Opcode: 7
63884000: global: CGRA: NOOP.Execute()
63884000: global: Distance is: 0
63884000: system.cpu: Ins: 6306136064, 177e00000 @ PE 11
63884000: global: Predictor bit: 0	 Opcode: 7
63884000: global: CGRA: NOOP.Execute()
63884000: global: Distance is: 0
63884000: system.cpu: Ins: 6306136064, 177e00000 @ PE 12
63884000: global: Predictor bit: 0	 Opcode: 7
63884000: global: CGRA: NOOP.Execute()
63884000: global: Distance is: 0
63884000: system.cpu: Ins: 6306136064, 177e00000 @ PE 13
63884000: global: Predictor bit: 0	 Opcode: 7
63884000: global: CGRA: NOOP.Execute()
63884000: global: Distance is: 0
63884000: system.cpu: Ins: 6306136064, 177e00000 @ PE 14
63884000: global: Predictor bit: 0	 Opcode: 7
63884000: global: CGRA: NOOP.Execute()
63884000: global: Distance is: 0
63884000: system.cpu: Ins: 6306136064, 177e00000 @ PE 15
63884000: global: Predictor bit: 0	 Opcode: 7
63884000: global: CGRA: NOOP.Execute()
63884000: global: Distance is: 0

************* MEM READ *************
Row: 0 - address: 632392 - data: 15
63884000: system.cpu: CGRA advanceTime complete.
63884000: system.cpu: *******IN ADVANCE PC******
63884000: system.cpu: build/ARM/cpu/atomiccgra/atomiccgra.cc,CGRA_advancePC,1759,PC:a6168
63884000: system.cpu: Passed Complete Drain().
63884000: system.cpu: Make latency status=1.
63884000: system.cpu: Inside status idle.
63884000: system.cpu: Exiting schedule events
63884000: system.cpu: We are here after Execution
63884500: system.cpu: Inside CGRA Execution else statement.
63884500: system.cpu: Inside CGRA_Execution block.
63884500: system.cpu: 
CALL IN NOW CGRA_Execution.
63884500: system.cpu: 

 ~~~~~~ CGRA_Execution @ numCycles = 13 ~~~~~~~
63884500: global: 
******** DB INPUT2 ReadAddress = 0************
63884500: global: 
******** DB INPUT2 ReadAddress = 0************
63884500: system.cpu: Ins: 5335236608, 13e014000 @ PE 0
63884500: global: Predictor bit: 1	 Opcode: 3
63884500: global: 
Input1 = 0	Input2 = 0
63884500: global: 
******** LDUI IN THIS PE 0************
63884500: global: 
************** WE *****************
63884500: global: 
WRITE: REG NUMBER: 2 dist: 0
63884500: global: R0: 0	R1: 1	R2: 2	R3: 0
63884500: global: 
WRITE: FPREG NUMBER: 2 dist: 0
63884500: global: FPR0: 0	FPR1: 1	FPR2: 2	FPR3: 0
63884500: global: Writing output 2 to register 2
63884500: global: Distance is: 0
63884500: system.cpu: Ins: 6306136064, 177e00000 @ PE 1
63884500: global: Predictor bit: 0	 Opcode: 7
63884500: global: CGRA: NOOP.Execute()
63884500: global: Distance is: 0
63884500: system.cpu: Ins: 4798400072, 11e01c648 @ PE 2
63884500: global: Predictor bit: 1	 Opcode: 1
63884500: global: 
Input1 = 1608	Input2 = 15
63884500: global: 
******** LDI IN THIS PE 1608************
63884500: global: 
************** WE *****************
63884500: global: 
WRITE: REG NUMBER: 3 dist: 0
63884500: global: R0: 15	R1: 0	R2: 0	R3: 1608
63884500: global: 
WRITE: FPREG NUMBER: 3 dist: 0
63884500: global: FPR0: 15	FPR1: 0	FPR2: 0	FPR3: 1608
63884500: global: Writing output 1608 to register 3
63884500: global: Distance is: 0
63884500: system.cpu: Ins: 6306136064, 177e00000 @ PE 3
63884500: global: Predictor bit: 0	 Opcode: 7
63884500: global: CGRA: NOOP.Execute()
63884500: global: Distance is: 0
63884500: system.cpu: Ins: 6306136064, 177e00000 @ PE 4
63884500: global: Predictor bit: 0	 Opcode: 7
63884500: global: CGRA: NOOP.Execute()
63884500: global: Distance is: 0
63884500: system.cpu: Ins: 6306136064, 177e00000 @ PE 5
63884500: global: Predictor bit: 0	 Opcode: 7
63884500: global: CGRA: NOOP.Execute()
63884500: global: Distance is: 0
63884500: system.cpu: Ins: 6306136064, 177e00000 @ PE 6
63884500: global: Predictor bit: 0	 Opcode: 7
63884500: global: CGRA: NOOP.Execute()
63884500: global: Distance is: 0
63884500: system.cpu: Ins: 6306136064, 177e00000 @ PE 7
63884500: global: Predictor bit: 0	 Opcode: 7
63884500: global: CGRA: NOOP.Execute()
63884500: global: Distance is: 0
63884500: system.cpu: Ins: 6306136064, 177e00000 @ PE 8
63884500: global: Predictor bit: 0	 Opcode: 7
63884500: global: CGRA: NOOP.Execute()
63884500: global: Distance is: 0
63884500: system.cpu: Ins: 6306136064, 177e00000 @ PE 9
63884500: global: Predictor bit: 0	 Opcode: 7
63884500: global: CGRA: NOOP.Execute()
63884500: global: Distance is: 0
63884500: system.cpu: Ins: 6306136064, 177e00000 @ PE 10
63884500: global: Predictor bit: 0	 Opcode: 7
63884500: global: CGRA: NOOP.Execute()
63884500: global: Distance is: 0
63884500: system.cpu: Ins: 6306136064, 177e00000 @ PE 11
63884500: global: Predictor bit: 0	 Opcode: 7
63884500: global: CGRA: NOOP.Execute()
63884500: global: Distance is: 0
63884500: system.cpu: Ins: 6306136064, 177e00000 @ PE 12
63884500: global: Predictor bit: 0	 Opcode: 7
63884500: global: CGRA: NOOP.Execute()
63884500: global: Distance is: 0
63884500: system.cpu: Ins: 6306136064, 177e00000 @ PE 13
63884500: global: Predictor bit: 0	 Opcode: 7
63884500: global: CGRA: NOOP.Execute()
63884500: global: Distance is: 0
63884500: system.cpu: Ins: 6306136064, 177e00000 @ PE 14
63884500: global: Predictor bit: 0	 Opcode: 7
63884500: global: CGRA: NOOP.Execute()
63884500: global: Distance is: 0
63884500: system.cpu: Ins: 6306136064, 177e00000 @ PE 15
63884500: global: Predictor bit: 0	 Opcode: 7
63884500: global: CGRA: NOOP.Execute()
63884500: global: Distance is: 0

************* MEM READ *************
Row: 0 - address: 632392 - data: 15
63884500: system.cpu: CGRA advanceTime complete.
63884500: system.cpu: *******IN ADVANCE PC******
63884500: system.cpu: build/ARM/cpu/atomiccgra/atomiccgra.cc,CGRA_advancePC,1759,PC:a61e8
63884500: system.cpu: Passed Complete Drain().
63884500: system.cpu: Make latency status=1.
63884500: system.cpu: Inside status idle.
63884500: system.cpu: Exiting schedule events
63884500: system.cpu: We are here after Execution
63885000: system.cpu: Inside CGRA Execution else statement.
63885000: system.cpu: Inside CGRA_Execution block.
63885000: system.cpu: 
CALL IN NOW CGRA_Execution.
63885000: system.cpu: 

 ~~~~~~ CGRA_Execution @ numCycles = 15 ~~~~~~~
63885000: global: 
******** DB INPUT2 ReadAddress = 0************
63885000: global: 
******** DB INPUT2 ReadAddress = 0************
63885000: system.cpu: Ins: 4798400084, 11e01c654 @ PE 0
63885000: global: Predictor bit: 1	 Opcode: 1
63885000: global: 
Input1 = 1620	Input2 = 0
63885000: global: 
******** LDI IN THIS PE 1620************
63885000: global: 
************** WE *****************
63885000: global: 
WRITE: REG NUMBER: 3 dist: 0
63885000: global: R0: 0	R1: 1	R2: 2	R3: 1620
63885000: global: 
WRITE: FPREG NUMBER: 3 dist: 0
63885000: global: FPR0: 0	FPR1: 1	FPR2: 2	FPR3: 1620
63885000: global: Writing output 1620 to register 3
63885000: global: Distance is: 0
63885000: system.cpu: Ins: 6306136064, 177e00000 @ PE 1
63885000: global: Predictor bit: 0	 Opcode: 7
63885000: global: CGRA: NOOP.Execute()
63885000: global: Distance is: 0
63885000: system.cpu: Ins: 5066834074, 12e01c09a @ PE 2
63885000: global: Predictor bit: 1	 Opcode: 2
63885000: global: 
Input1 = 154	Input2 = 15
63885000: global: 
******** LDMI IN THIS PE 154************
63885000: global: 
************** WE *****************
63885000: global: 
WRITE: REG NUMBER: 3 dist: 0
63885000: global: R0: 15	R1: 0	R2: 0	R3: 632392
63885000: global: 
WRITE: FPREG NUMBER: 3 dist: 0
63885000: global: FPR0: 15	FPR1: 0	FPR2: 0	FPR3: 632392
63885000: global: Writing output 632392 to register 3
63885000: global: Distance is: 0
63885000: system.cpu: Ins: 6306136064, 177e00000 @ PE 3
63885000: global: Predictor bit: 0	 Opcode: 7
63885000: global: CGRA: NOOP.Execute()
63885000: global: Distance is: 0
63885000: system.cpu: Ins: 6306136064, 177e00000 @ PE 4
63885000: global: Predictor bit: 0	 Opcode: 7
63885000: global: CGRA: NOOP.Execute()
63885000: global: Distance is: 0
63885000: system.cpu: Ins: 6306136064, 177e00000 @ PE 5
63885000: global: Predictor bit: 0	 Opcode: 7
63885000: global: CGRA: NOOP.Execute()
63885000: global: Distance is: 0
63885000: system.cpu: Ins: 6306136064, 177e00000 @ PE 6
63885000: global: Predictor bit: 0	 Opcode: 7
63885000: global: CGRA: NOOP.Execute()
63885000: global: Distance is: 0
63885000: system.cpu: Ins: 6306136064, 177e00000 @ PE 7
63885000: global: Predictor bit: 0	 Opcode: 7
63885000: global: CGRA: NOOP.Execute()
63885000: global: Distance is: 0
63885000: system.cpu: Ins: 6306136064, 177e00000 @ PE 8
63885000: global: Predictor bit: 0	 Opcode: 7
63885000: global: CGRA: NOOP.Execute()
63885000: global: Distance is: 0
63885000: system.cpu: Ins: 6306136064, 177e00000 @ PE 9
63885000: global: Predictor bit: 0	 Opcode: 7
63885000: global: CGRA: NOOP.Execute()
63885000: global: Distance is: 0
63885000: system.cpu: Ins: 6306136064, 177e00000 @ PE 10
63885000: global: Predictor bit: 0	 Opcode: 7
63885000: global: CGRA: NOOP.Execute()
63885000: global: Distance is: 0
63885000: system.cpu: Ins: 6306136064, 177e00000 @ PE 11
63885000: global: Predictor bit: 0	 Opcode: 7
63885000: global: CGRA: NOOP.Execute()
63885000: global: Distance is: 0
63885000: system.cpu: Ins: 6306136064, 177e00000 @ PE 12
63885000: global: Predictor bit: 0	 Opcode: 7
63885000: global: CGRA: NOOP.Execute()
63885000: global: Distance is: 0
63885000: system.cpu: Ins: 6306136064, 177e00000 @ PE 13
63885000: global: Predictor bit: 0	 Opcode: 7
63885000: global: CGRA: NOOP.Execute()
63885000: global: Distance is: 0
63885000: system.cpu: Ins: 6306136064, 177e00000 @ PE 14
63885000: global: Predictor bit: 0	 Opcode: 7
63885000: global: CGRA: NOOP.Execute()
63885000: global: Distance is: 0
63885000: system.cpu: Ins: 6306136064, 177e00000 @ PE 15
63885000: global: Predictor bit: 0	 Opcode: 7
63885000: global: CGRA: NOOP.Execute()
63885000: global: Distance is: 0

************* MEM READ *************
Row: 0 - address: 632392 - data: 15
63885000: system.cpu: CGRA advanceTime complete.
63885000: system.cpu: *******IN ADVANCE PC******
63885000: system.cpu: build/ARM/cpu/atomiccgra/atomiccgra.cc,CGRA_advancePC,1759,PC:a6268
63885000: system.cpu: Passed Complete Drain().
63885000: system.cpu: Make latency status=1.
63885000: system.cpu: Inside status idle.
63885000: system.cpu: Exiting schedule events
63885000: system.cpu: We are here after Execution
63885500: system.cpu: Inside CGRA Execution else statement.
63885500: system.cpu: Inside CGRA_Execution block.
63885500: system.cpu: 
CALL IN NOW CGRA_Execution.
63885500: system.cpu: 

 ~~~~~~ CGRA_Execution @ numCycles = 17 ~~~~~~~
63885500: global: 
******** DB INPUT2 ReadAddress = 0************
63885500: global: 
******** DB INPUT2 ReadAddress = 0************
63885500: system.cpu: Ins: 5066834074, 12e01c09a @ PE 0
63885500: global: Predictor bit: 1	 Opcode: 2
63885500: global: 
Input1 = 154	Input2 = 0
63885500: global: 
******** LDMI IN THIS PE 154************
63885500: global: 
************** WE *****************
63885500: global: 
WRITE: REG NUMBER: 3 dist: 0
63885500: global: R0: 0	R1: 1	R2: 2	R3: 632404
63885500: global: 
WRITE: FPREG NUMBER: 3 dist: 0
63885500: global: FPR0: 0	FPR1: 1	FPR2: 2	FPR3: 632404
63885500: global: Writing output 632404 to register 3
63885500: global: Distance is: 0
63885500: system.cpu: Ins: 6306136064, 177e00000 @ PE 1
63885500: global: Predictor bit: 0	 Opcode: 7
63885500: global: CGRA: NOOP.Execute()
63885500: global: Distance is: 0
63885500: system.cpu: Ins: 5335269376, 13e01c000 @ PE 2
63885500: global: Predictor bit: 1	 Opcode: 3
63885500: global: 
Input1 = 0	Input2 = 15
63885500: global: 
******** LDUI IN THIS PE 0************
63885500: global: 
************** WE *****************
63885500: global: 
WRITE: REG NUMBER: 3 dist: 0
63885500: global: R0: 15	R1: 0	R2: 0	R3: 632392
63885500: global: 
WRITE: FPREG NUMBER: 3 dist: 0
63885500: global: FPR0: 15	FPR1: 0	FPR2: 0	FPR3: 632392
63885500: global: Writing output 632392 to register 3
63885500: global: Distance is: 0
63885500: system.cpu: Ins: 6306136064, 177e00000 @ PE 3
63885500: global: Predictor bit: 0	 Opcode: 7
63885500: global: CGRA: NOOP.Execute()
63885500: global: Distance is: 0
63885500: system.cpu: Ins: 6306136064, 177e00000 @ PE 4
63885500: global: Predictor bit: 0	 Opcode: 7
63885500: global: CGRA: NOOP.Execute()
63885500: global: Distance is: 0
63885500: system.cpu: Ins: 6306136064, 177e00000 @ PE 5
63885500: global: Predictor bit: 0	 Opcode: 7
63885500: global: CGRA: NOOP.Execute()
63885500: global: Distance is: 0
63885500: system.cpu: Ins: 6306136064, 177e00000 @ PE 6
63885500: global: Predictor bit: 0	 Opcode: 7
63885500: global: CGRA: NOOP.Execute()
63885500: global: Distance is: 0
63885500: system.cpu: Ins: 6306136064, 177e00000 @ PE 7
63885500: global: Predictor bit: 0	 Opcode: 7
63885500: global: CGRA: NOOP.Execute()
63885500: global: Distance is: 0
63885500: system.cpu: Ins: 6306136064, 177e00000 @ PE 8
63885500: global: Predictor bit: 0	 Opcode: 7
63885500: global: CGRA: NOOP.Execute()
63885500: global: Distance is: 0
63885500: system.cpu: Ins: 6306136064, 177e00000 @ PE 9
63885500: global: Predictor bit: 0	 Opcode: 7
63885500: global: CGRA: NOOP.Execute()
63885500: global: Distance is: 0
63885500: system.cpu: Ins: 6306136064, 177e00000 @ PE 10
63885500: global: Predictor bit: 0	 Opcode: 7
63885500: global: CGRA: NOOP.Execute()
63885500: global: Distance is: 0
63885500: system.cpu: Ins: 6306136064, 177e00000 @ PE 11
63885500: global: Predictor bit: 0	 Opcode: 7
63885500: global: CGRA: NOOP.Execute()
63885500: global: Distance is: 0
63885500: system.cpu: Ins: 6306136064, 177e00000 @ PE 12
63885500: global: Predictor bit: 0	 Opcode: 7
63885500: global: CGRA: NOOP.Execute()
63885500: global: Distance is: 0
63885500: system.cpu: Ins: 6306136064, 177e00000 @ PE 13
63885500: global: Predictor bit: 0	 Opcode: 7
63885500: global: CGRA: NOOP.Execute()
63885500: global: Distance is: 0
63885500: system.cpu: Ins: 6306136064, 177e00000 @ PE 14
63885500: global: Predictor bit: 0	 Opcode: 7
63885500: global: CGRA: NOOP.Execute()
63885500: global: Distance is: 0
63885500: system.cpu: Ins: 6306136064, 177e00000 @ PE 15
63885500: global: Predictor bit: 0	 Opcode: 7
63885500: global: CGRA: NOOP.Execute()
63885500: global: Distance is: 0

************* MEM READ *************
Row: 0 - address: 632392 - data: 15
63885500: system.cpu: CGRA advanceTime complete.
63885500: system.cpu: *******IN ADVANCE PC******
63885500: system.cpu: build/ARM/cpu/atomiccgra/atomiccgra.cc,CGRA_advancePC,1759,PC:a62e8
63885500: system.cpu: Passed Complete Drain().
63885500: system.cpu: Make latency status=1.
63885500: system.cpu: Inside status idle.
63885500: system.cpu: Exiting schedule events
63885500: system.cpu: We are here after Execution
63886000: system.cpu: Inside CGRA Execution else statement.
63886000: system.cpu: Inside CGRA_Execution block.
63886000: system.cpu: 
CALL IN NOW CGRA_Execution.
63886000: system.cpu: 

 ~~~~~~ CGRA_Execution @ numCycles = 19 ~~~~~~~
63886000: global: 
******** DB INPUT2 ReadAddress = 0************
63886000: global: 
******** DB INPUT1 ReadAddress = 3************
63886000: system.cpu: Ins: 5335269376, 13e01c000 @ PE 0
63886000: global: Predictor bit: 1	 Opcode: 3
63886000: global: 
Input1 = 0	Input2 = 0
63886000: global: 
******** LDUI IN THIS PE 0************
63886000: global: 
************** WE *****************
63886000: global: 
WRITE: REG NUMBER: 3 dist: 0
63886000: global: R0: 0	R1: 1	R2: 2	R3: 632404
63886000: global: 
WRITE: FPREG NUMBER: 3 dist: 0
63886000: global: FPR0: 0	FPR1: 1	FPR2: 2	FPR3: 632404
63886000: global: Writing output 632404 to register 3
63886000: global: Distance is: 0
63886000: system.cpu: Ins: 6306136064, 177e00000 @ PE 1
63886000: global: Predictor bit: 0	 Opcode: 7
63886000: global: CGRA: NOOP.Execute()
63886000: global: Distance is: 0
63886000: system.cpu: Ins: 6053961732, 168d82004 @ PE 2
63886000: global: Predictor bit: 1	 Opcode: 6
63886000: global: 
Input1 = 632392	Input2 = 4
63886000: global: 
******** ADDRESS GENERATED IN THIS PE 632392************
63886000: global: 
*********Setting Address 9a648 ******
63886000: global: Distance is: 0
63886000: system.cpu: Ins: 6306136064, 177e00000 @ PE 3
63886000: global: Predictor bit: 0	 Opcode: 7
63886000: global: CGRA: NOOP.Execute()
63886000: global: Distance is: 0
63886000: system.cpu: Ins: 6306136064, 177e00000 @ PE 4
63886000: global: Predictor bit: 0	 Opcode: 7
63886000: global: CGRA: NOOP.Execute()
63886000: global: Distance is: 0
63886000: system.cpu: Ins: 6306136064, 177e00000 @ PE 5
63886000: global: Predictor bit: 0	 Opcode: 7
63886000: global: CGRA: NOOP.Execute()
63886000: global: Distance is: 0
63886000: system.cpu: Ins: 6306136064, 177e00000 @ PE 6
63886000: global: Predictor bit: 0	 Opcode: 7
63886000: global: CGRA: NOOP.Execute()
63886000: global: Distance is: 0
63886000: system.cpu: Ins: 6306136064, 177e00000 @ PE 7
63886000: global: Predictor bit: 0	 Opcode: 7
63886000: global: CGRA: NOOP.Execute()
63886000: global: Distance is: 0
63886000: system.cpu: Ins: 6306136064, 177e00000 @ PE 8
63886000: global: Predictor bit: 0	 Opcode: 7
63886000: global: CGRA: NOOP.Execute()
63886000: global: Distance is: 0
63886000: system.cpu: Ins: 6306136064, 177e00000 @ PE 9
63886000: global: Predictor bit: 0	 Opcode: 7
63886000: global: CGRA: NOOP.Execute()
63886000: global: Distance is: 0
63886000: system.cpu: Ins: 6306136064, 177e00000 @ PE 10
63886000: global: Predictor bit: 0	 Opcode: 7
63886000: global: CGRA: NOOP.Execute()
63886000: global: Distance is: 0
63886000: system.cpu: Ins: 6306136064, 177e00000 @ PE 11
63886000: global: Predictor bit: 0	 Opcode: 7
63886000: global: CGRA: NOOP.Execute()
63886000: global: Distance is: 0
63886000: system.cpu: Ins: 6306136064, 177e00000 @ PE 12
63886000: global: Predictor bit: 0	 Opcode: 7
63886000: global: CGRA: NOOP.Execute()
63886000: global: Distance is: 0
63886000: system.cpu: Ins: 6306136064, 177e00000 @ PE 13
63886000: global: Predictor bit: 0	 Opcode: 7
63886000: global: CGRA: NOOP.Execute()
63886000: global: Distance is: 0
63886000: system.cpu: Ins: 6306136064, 177e00000 @ PE 14
63886000: global: Predictor bit: 0	 Opcode: 7
63886000: global: CGRA: NOOP.Execute()
63886000: global: Distance is: 0
63886000: system.cpu: Ins: 6306136064, 177e00000 @ PE 15
63886000: global: Predictor bit: 0	 Opcode: 7
63886000: global: CGRA: NOOP.Execute()
63886000: global: Distance is: 0

************* MEM READ *************
Row: 0 - address: 632392 - data: 15
63886000: system.cpu: CGRA advanceTime complete.
63886000: system.cpu: *******IN ADVANCE PC******
63886000: system.cpu: build/ARM/cpu/atomiccgra/atomiccgra.cc,CGRA_advancePC,1759,PC:a6368
63886000: system.cpu: Passed Complete Drain().
63886000: system.cpu: Make latency status=1.
63886000: system.cpu: Inside status idle.
63886000: system.cpu: Exiting schedule events
63886000: system.cpu: We are here after Execution
63886500: system.cpu: Inside CGRA Execution else statement.
63886500: system.cpu: Inside CGRA_Execution block.
63886500: system.cpu: 
CALL IN NOW CGRA_Execution.
63886500: system.cpu: 

 ~~~~~~ CGRA_Execution @ numCycles = 21 ~~~~~~~
63886500: global: 
******** DB INPUT2 ReadAddress = 0************
63886500: global: 
******** DB INPUT1 = 15************
63886500: system.cpu: Ins: 4798301780, 11e004654 @ PE 0
63886500: global: Predictor bit: 1	 Opcode: 1
63886500: global: 
Input1 = 1620	Input2 = 0
63886500: global: 
******** LDI IN THIS PE 1620************
63886500: global: 
************** WE *****************
63886500: global: 
WRITE: REG NUMBER: 0 dist: 0
63886500: global: R0: 1620	R1: 1	R2: 2	R3: 632404
63886500: global: 
WRITE: FPREG NUMBER: 0 dist: 0
63886500: global: FPR0: 1620	FPR1: 1	FPR2: 2	FPR3: 632404
63886500: global: Writing output 1620 to register 0
63886500: global: Distance is: 0
63886500: system.cpu: Ins: 6306136064, 177e00000 @ PE 1
63886500: global: Predictor bit: 0	 Opcode: 7
63886500: global: CGRA: NOOP.Execute()
63886500: global: Distance is: 0
63886500: system.cpu: Ins: 4391550976, 105c1c000 @ PE 2
63886500: global: Predictor bit: 0	 Opcode: 0
63886500: global: 
Input1 = 15	Input2 = 0
63886500: global: 
******** SUM IN THIS PE 15************
63886500: global: 
WRITE: REG NUMBER: 3 dist: 0
63886500: global: R0: 15	R1: 0	R2: 0	R3: 15
63886500: global: 
WRITE: FPREG NUMBER: 3 dist: 0
63886500: global: FPR0: 15	FPR1: 0	FPR2: 0	FPR3: 15
63886500: global: Writing output 15 to register 3
63886500: global: Distance is: 0
63886500: system.cpu: Ins: 6306136064, 177e00000 @ PE 3
63886500: global: Predictor bit: 0	 Opcode: 7
63886500: global: CGRA: NOOP.Execute()
63886500: global: Distance is: 0
63886500: system.cpu: Ins: 6306136064, 177e00000 @ PE 4
63886500: global: Predictor bit: 0	 Opcode: 7
63886500: global: CGRA: NOOP.Execute()
63886500: global: Distance is: 0
63886500: system.cpu: Ins: 6306136064, 177e00000 @ PE 5
63886500: global: Predictor bit: 0	 Opcode: 7
63886500: global: CGRA: NOOP.Execute()
63886500: global: Distance is: 0
63886500: system.cpu: Ins: 6306136064, 177e00000 @ PE 6
63886500: global: Predictor bit: 0	 Opcode: 7
63886500: global: CGRA: NOOP.Execute()
63886500: global: Distance is: 0
63886500: system.cpu: Ins: 6306136064, 177e00000 @ PE 7
63886500: global: Predictor bit: 0	 Opcode: 7
63886500: global: CGRA: NOOP.Execute()
63886500: global: Distance is: 0
63886500: system.cpu: Ins: 6306136064, 177e00000 @ PE 8
63886500: global: Predictor bit: 0	 Opcode: 7
63886500: global: CGRA: NOOP.Execute()
63886500: global: Distance is: 0
63886500: system.cpu: Ins: 6306136064, 177e00000 @ PE 9
63886500: global: Predictor bit: 0	 Opcode: 7
63886500: global: CGRA: NOOP.Execute()
63886500: global: Distance is: 0
63886500: system.cpu: Ins: 6306136064, 177e00000 @ PE 10
63886500: global: Predictor bit: 0	 Opcode: 7
63886500: global: CGRA: NOOP.Execute()
63886500: global: Distance is: 0
63886500: system.cpu: Ins: 6306136064, 177e00000 @ PE 11
63886500: global: Predictor bit: 0	 Opcode: 7
63886500: global: CGRA: NOOP.Execute()
63886500: global: Distance is: 0
63886500: system.cpu: Ins: 6306136064, 177e00000 @ PE 12
63886500: global: Predictor bit: 0	 Opcode: 7
63886500: global: CGRA: NOOP.Execute()
63886500: global: Distance is: 0
63886500: system.cpu: Ins: 6306136064, 177e00000 @ PE 13
63886500: global: Predictor bit: 0	 Opcode: 7
63886500: global: CGRA: NOOP.Execute()
63886500: global: Distance is: 0
63886500: system.cpu: Ins: 6306136064, 177e00000 @ PE 14
63886500: global: Predictor bit: 0	 Opcode: 7
63886500: global: CGRA: NOOP.Execute()
63886500: global: Distance is: 0
63886500: system.cpu: Ins: 6306136064, 177e00000 @ PE 15
63886500: global: Predictor bit: 0	 Opcode: 7
63886500: global: CGRA: NOOP.Execute()
63886500: global: Distance is: 0

************* MEM READ *************
Row: 0 - address: 632392 - data: 15
63886500: system.cpu: CGRA advanceTime complete.
63886500: system.cpu: *******IN ADVANCE PC******
63886500: system.cpu: build/ARM/cpu/atomiccgra/atomiccgra.cc,CGRA_advancePC,1759,PC:a63e8
63886500: system.cpu: Passed Complete Drain().
63886500: system.cpu: Make latency status=1.
63886500: system.cpu: Inside status idle.
63886500: system.cpu: Exiting schedule events
63886500: system.cpu: We are here after Execution
63887000: system.cpu: Inside CGRA Execution else statement.
63887000: system.cpu: Inside CGRA_Execution block.
63887000: system.cpu: 
CALL IN NOW CGRA_Execution.
63887000: system.cpu: 

 ~~~~~~ CGRA_Execution @ numCycles = 23 ~~~~~~~
63887000: global: 
******** DB INPUT2 ReadAddress = 0************
63887000: system.cpu: Ins: 5066735770, 12e00409a @ PE 0
63887000: global: Predictor bit: 1	 Opcode: 2
63887000: global: 
Input1 = 154	Input2 = 1620
63887000: global: 
******** LDMI IN THIS PE 154************
63887000: global: 
************** WE *****************
63887000: global: 
WRITE: REG NUMBER: 0 dist: 0
63887000: global: R0: 632404	R1: 1	R2: 2	R3: 632404
63887000: global: 
WRITE: FPREG NUMBER: 0 dist: 0
63887000: global: FPR0: 632404	FPR1: 1	FPR2: 2	FPR3: 632404
63887000: global: Writing output 632404 to register 0
63887000: global: Distance is: 0
63887000: system.cpu: Ins: 6306136064, 177e00000 @ PE 1
63887000: global: Predictor bit: 0	 Opcode: 7
63887000: global: CGRA: NOOP.Execute()
63887000: global: Distance is: 0
63887000: system.cpu: Ins: 6306136064, 177e00000 @ PE 2
63887000: global: Predictor bit: 0	 Opcode: 7
63887000: global: CGRA: NOOP.Execute()
63887000: global: Distance is: 0
63887000: system.cpu: Ins: 6306136064, 177e00000 @ PE 3
63887000: global: Predictor bit: 0	 Opcode: 7
63887000: global: CGRA: NOOP.Execute()
63887000: global: Distance is: 0
63887000: system.cpu: Ins: 6306136064, 177e00000 @ PE 4
63887000: global: Predictor bit: 0	 Opcode: 7
63887000: global: CGRA: NOOP.Execute()
63887000: global: Distance is: 0
63887000: system.cpu: Ins: 6306136064, 177e00000 @ PE 5
63887000: global: Predictor bit: 0	 Opcode: 7
63887000: global: CGRA: NOOP.Execute()
63887000: global: Distance is: 0
63887000: system.cpu: Ins: 6306136064, 177e00000 @ PE 6
63887000: global: Predictor bit: 0	 Opcode: 7
63887000: global: CGRA: NOOP.Execute()
63887000: global: Distance is: 0
63887000: system.cpu: Ins: 6306136064, 177e00000 @ PE 7
63887000: global: Predictor bit: 0	 Opcode: 7
63887000: global: CGRA: NOOP.Execute()
63887000: global: Distance is: 0
63887000: system.cpu: Ins: 6306136064, 177e00000 @ PE 8
63887000: global: Predictor bit: 0	 Opcode: 7
63887000: global: CGRA: NOOP.Execute()
63887000: global: Distance is: 0
63887000: system.cpu: Ins: 6306136064, 177e00000 @ PE 9
63887000: global: Predictor bit: 0	 Opcode: 7
63887000: global: CGRA: NOOP.Execute()
63887000: global: Distance is: 0
63887000: system.cpu: Ins: 6306136064, 177e00000 @ PE 10
63887000: global: Predictor bit: 0	 Opcode: 7
63887000: global: CGRA: NOOP.Execute()
63887000: global: Distance is: 0
63887000: system.cpu: Ins: 6306136064, 177e00000 @ PE 11
63887000: global: Predictor bit: 0	 Opcode: 7
63887000: global: CGRA: NOOP.Execute()
63887000: global: Distance is: 0
63887000: system.cpu: Ins: 6306136064, 177e00000 @ PE 12
63887000: global: Predictor bit: 0	 Opcode: 7
63887000: global: CGRA: NOOP.Execute()
63887000: global: Distance is: 0
63887000: system.cpu: Ins: 6306136064, 177e00000 @ PE 13
63887000: global: Predictor bit: 0	 Opcode: 7
63887000: global: CGRA: NOOP.Execute()
63887000: global: Distance is: 0
63887000: system.cpu: Ins: 6306136064, 177e00000 @ PE 14
63887000: global: Predictor bit: 0	 Opcode: 7
63887000: global: CGRA: NOOP.Execute()
63887000: global: Distance is: 0
63887000: system.cpu: Ins: 6306136064, 177e00000 @ PE 15
63887000: global: Predictor bit: 0	 Opcode: 7
63887000: global: CGRA: NOOP.Execute()
63887000: global: Distance is: 0

************* MEM READ *************
Row: 0 - address: 632392 - data: 15
63887000: system.cpu: CGRA advanceTime complete.
63887000: system.cpu: *******IN ADVANCE PC******
63887000: system.cpu: build/ARM/cpu/atomiccgra/atomiccgra.cc,CGRA_advancePC,1759,PC:a6468
63887000: system.cpu: Passed Complete Drain().
63887000: system.cpu: Make latency status=1.
63887000: system.cpu: Inside status idle.
63887000: system.cpu: Exiting schedule events
63887000: system.cpu: We are here after Execution
63887500: system.cpu: Inside CGRA Execution else statement.
63887500: system.cpu: Inside CGRA_Execution block.
63887500: system.cpu: 
CALL IN NOW CGRA_Execution.
63887500: system.cpu: 

 ~~~~~~ CGRA_Execution @ numCycles = 25 ~~~~~~~
63887500: global: 
******** DB INPUT2 ReadAddress = 0************
63887500: system.cpu: Ins: 5335171072, 13e004000 @ PE 0
63887500: global: Predictor bit: 1	 Opcode: 3
63887500: global: 
Input1 = 0	Input2 = 632404
63887500: global: 
******** LDUI IN THIS PE 0************
63887500: global: 
************** WE *****************
63887500: global: 
WRITE: REG NUMBER: 0 dist: 0
63887500: global: R0: 632404	R1: 1	R2: 2	R3: 632404
63887500: global: 
WRITE: FPREG NUMBER: 0 dist: 0
63887500: global: FPR0: 632404	FPR1: 1	FPR2: 2	FPR3: 632404
63887500: global: Writing output 632404 to register 0
63887500: global: Distance is: 0
63887500: system.cpu: Ins: 6306136064, 177e00000 @ PE 1
63887500: global: Predictor bit: 0	 Opcode: 7
63887500: global: CGRA: NOOP.Execute()
63887500: global: Distance is: 0
63887500: system.cpu: Ins: 6306136064, 177e00000 @ PE 2
63887500: global: Predictor bit: 0	 Opcode: 7
63887500: global: CGRA: NOOP.Execute()
63887500: global: Distance is: 0
63887500: system.cpu: Ins: 6306136064, 177e00000 @ PE 3
63887500: global: Predictor bit: 0	 Opcode: 7
63887500: global: CGRA: NOOP.Execute()
63887500: global: Distance is: 0
63887500: system.cpu: Ins: 6306136064, 177e00000 @ PE 4
63887500: global: Predictor bit: 0	 Opcode: 7
63887500: global: CGRA: NOOP.Execute()
63887500: global: Distance is: 0
63887500: system.cpu: Ins: 6306136064, 177e00000 @ PE 5
63887500: global: Predictor bit: 0	 Opcode: 7
63887500: global: CGRA: NOOP.Execute()
63887500: global: Distance is: 0
63887500: system.cpu: Ins: 6306136064, 177e00000 @ PE 6
63887500: global: Predictor bit: 0	 Opcode: 7
63887500: global: CGRA: NOOP.Execute()
63887500: global: Distance is: 0
63887500: system.cpu: Ins: 6306136064, 177e00000 @ PE 7
63887500: global: Predictor bit: 0	 Opcode: 7
63887500: global: CGRA: NOOP.Execute()
63887500: global: Distance is: 0
63887500: system.cpu: Ins: 6306136064, 177e00000 @ PE 8
63887500: global: Predictor bit: 0	 Opcode: 7
63887500: global: CGRA: NOOP.Execute()
63887500: global: Distance is: 0
63887500: system.cpu: Ins: 6306136064, 177e00000 @ PE 9
63887500: global: Predictor bit: 0	 Opcode: 7
63887500: global: CGRA: NOOP.Execute()
63887500: global: Distance is: 0
63887500: system.cpu: Ins: 6306136064, 177e00000 @ PE 10
63887500: global: Predictor bit: 0	 Opcode: 7
63887500: global: CGRA: NOOP.Execute()
63887500: global: Distance is: 0
63887500: system.cpu: Ins: 6306136064, 177e00000 @ PE 11
63887500: global: Predictor bit: 0	 Opcode: 7
63887500: global: CGRA: NOOP.Execute()
63887500: global: Distance is: 0
63887500: system.cpu: Ins: 6306136064, 177e00000 @ PE 12
63887500: global: Predictor bit: 0	 Opcode: 7
63887500: global: CGRA: NOOP.Execute()
63887500: global: Distance is: 0
63887500: system.cpu: Ins: 6306136064, 177e00000 @ PE 13
63887500: global: Predictor bit: 0	 Opcode: 7
63887500: global: CGRA: NOOP.Execute()
63887500: global: Distance is: 0
63887500: system.cpu: Ins: 6306136064, 177e00000 @ PE 14
63887500: global: Predictor bit: 0	 Opcode: 7
63887500: global: CGRA: NOOP.Execute()
63887500: global: Distance is: 0
63887500: system.cpu: Ins: 6306136064, 177e00000 @ PE 15
63887500: global: Predictor bit: 0	 Opcode: 7
63887500: global: CGRA: NOOP.Execute()
63887500: global: Distance is: 0

************* MEM READ *************
Row: 0 - address: 632392 - data: 15
63887500: system.cpu: CGRA advanceTime complete.
63887500: system.cpu: *******IN ADVANCE PC******
63887500: system.cpu: build/ARM/cpu/atomiccgra/atomiccgra.cc,CGRA_advancePC,1759,PC:a64e8
63887500: system.cpu: Passed Complete Drain().
63887500: system.cpu: Make latency status=1.
63887500: system.cpu: Inside status idle.
63887500: system.cpu: Exiting schedule events
63887500: system.cpu: We are here after Execution
63888000: system.cpu: Inside CGRA Execution else statement.
63888000: system.cpu: Inside CGRA_Execution block.
63888000: system.cpu: 
CALL IN NOW CGRA_Execution.
63888000: system.cpu: 

 ~~~~~~ CGRA_Execution @ numCycles = 27 ~~~~~~~
63888000: system.cpu: Ins: 6306136064, 177e00000 @ PE 0
63888000: global: Predictor bit: 0	 Opcode: 7
63888000: global: CGRA: NOOP.Execute()
63888000: global: Distance is: 0
63888000: system.cpu: Ins: 6306136064, 177e00000 @ PE 1
63888000: global: Predictor bit: 0	 Opcode: 7
63888000: global: CGRA: NOOP.Execute()
63888000: global: Distance is: 0
63888000: system.cpu: Ins: 6306136064, 177e00000 @ PE 2
63888000: global: Predictor bit: 0	 Opcode: 7
63888000: global: CGRA: NOOP.Execute()
63888000: global: Distance is: 0
63888000: system.cpu: Ins: 6306136064, 177e00000 @ PE 3
63888000: global: Predictor bit: 0	 Opcode: 7
63888000: global: CGRA: NOOP.Execute()
63888000: global: Distance is: 0
63888000: system.cpu: Ins: 6306136064, 177e00000 @ PE 4
63888000: global: Predictor bit: 0	 Opcode: 7
63888000: global: CGRA: NOOP.Execute()
63888000: global: Distance is: 0
63888000: system.cpu: Ins: 6306136064, 177e00000 @ PE 5
63888000: global: Predictor bit: 0	 Opcode: 7
63888000: global: CGRA: NOOP.Execute()
63888000: global: Distance is: 0
63888000: system.cpu: Ins: 6306136064, 177e00000 @ PE 6
63888000: global: Predictor bit: 0	 Opcode: 7
63888000: global: CGRA: NOOP.Execute()
63888000: global: Distance is: 0
63888000: system.cpu: Ins: 6306136064, 177e00000 @ PE 7
63888000: global: Predictor bit: 0	 Opcode: 7
63888000: global: CGRA: NOOP.Execute()
63888000: global: Distance is: 0
63888000: system.cpu: Ins: 6306136064, 177e00000 @ PE 8
63888000: global: Predictor bit: 0	 Opcode: 7
63888000: global: CGRA: NOOP.Execute()
63888000: global: Distance is: 0
63888000: system.cpu: Ins: 6306136064, 177e00000 @ PE 9
63888000: global: Predictor bit: 0	 Opcode: 7
63888000: global: CGRA: NOOP.Execute()
63888000: global: Distance is: 0
63888000: system.cpu: Ins: 6306136064, 177e00000 @ PE 10
63888000: global: Predictor bit: 0	 Opcode: 7
63888000: global: CGRA: NOOP.Execute()
63888000: global: Distance is: 0
63888000: system.cpu: Ins: 6306136064, 177e00000 @ PE 11
63888000: global: Predictor bit: 0	 Opcode: 7
63888000: global: CGRA: NOOP.Execute()
63888000: global: Distance is: 0
63888000: system.cpu: Ins: 6306136064, 177e00000 @ PE 12
63888000: global: Predictor bit: 0	 Opcode: 7
63888000: global: CGRA: NOOP.Execute()
63888000: global: Distance is: 0
63888000: system.cpu: Ins: 6306136064, 177e00000 @ PE 13
63888000: global: Predictor bit: 0	 Opcode: 7
63888000: global: CGRA: NOOP.Execute()
63888000: global: Distance is: 0
63888000: system.cpu: Ins: 6306136064, 177e00000 @ PE 14
63888000: global: Predictor bit: 0	 Opcode: 7
63888000: global: CGRA: NOOP.Execute()
63888000: global: Distance is: 0
63888000: system.cpu: Ins: 6306136064, 177e00000 @ PE 15
63888000: global: Predictor bit: 0	 Opcode: 7
63888000: global: CGRA: NOOP.Execute()
63888000: global: Distance is: 0

************* MEM READ *************
Row: 0 - address: 632392 - data: 15
63888000: system.cpu: CGRA advanceTime complete.
63888000: system.cpu: *******IN ADVANCE PC******
63888000: system.cpu: build/ARM/cpu/atomiccgra/atomiccgra.cc,CGRA_advancePC,1759,PC:a6568
63888000: system.cpu: Passed Complete Drain().
63888000: system.cpu: Make latency status=1.
63888000: system.cpu: Inside status idle.
63888000: system.cpu: Exiting schedule events
63888000: system.cpu: We are here after Execution
63888500: system.cpu: Inside CGRA Execution else statement.
63888500: system.cpu: Inside CGRA_Execution block.
63888500: system.cpu: 
CALL IN NOW CGRA_Execution.
63888500: system.cpu: 

 ~~~~~~ CGRA_Execution @ numCycles = 29 ~~~~~~~
63888500: system.cpu: Ins: 6306136064, 177e00000 @ PE 0
63888500: global: Predictor bit: 0	 Opcode: 7
63888500: global: CGRA: NOOP.Execute()
63888500: global: Distance is: 0
63888500: system.cpu: Ins: 6306136064, 177e00000 @ PE 1
63888500: global: Predictor bit: 0	 Opcode: 7
63888500: global: CGRA: NOOP.Execute()
63888500: global: Distance is: 0
63888500: system.cpu: Ins: 6306136064, 177e00000 @ PE 2
63888500: global: Predictor bit: 0	 Opcode: 7
63888500: global: CGRA: NOOP.Execute()
63888500: global: Distance is: 0
63888500: system.cpu: Ins: 6306136064, 177e00000 @ PE 3
63888500: global: Predictor bit: 0	 Opcode: 7
63888500: global: CGRA: NOOP.Execute()
63888500: global: Distance is: 0
63888500: system.cpu: Ins: 6306136064, 177e00000 @ PE 4
63888500: global: Predictor bit: 0	 Opcode: 7
63888500: global: CGRA: NOOP.Execute()
63888500: global: Distance is: 0
63888500: system.cpu: Ins: 6306136064, 177e00000 @ PE 5
63888500: global: Predictor bit: 0	 Opcode: 7
63888500: global: CGRA: NOOP.Execute()
63888500: global: Distance is: 0
63888500: system.cpu: Ins: 6306136064, 177e00000 @ PE 6
63888500: global: Predictor bit: 0	 Opcode: 7
63888500: global: CGRA: NOOP.Execute()
63888500: global: Distance is: 0
63888500: system.cpu: Ins: 6306136064, 177e00000 @ PE 7
63888500: global: Predictor bit: 0	 Opcode: 7
63888500: global: CGRA: NOOP.Execute()
63888500: global: Distance is: 0
63888500: system.cpu: Ins: 6306136064, 177e00000 @ PE 8
63888500: global: Predictor bit: 0	 Opcode: 7
63888500: global: CGRA: NOOP.Execute()
63888500: global: Distance is: 0
63888500: system.cpu: Ins: 6306136064, 177e00000 @ PE 9
63888500: global: Predictor bit: 0	 Opcode: 7
63888500: global: CGRA: NOOP.Execute()
63888500: global: Distance is: 0
63888500: system.cpu: Ins: 6306136064, 177e00000 @ PE 10
63888500: global: Predictor bit: 0	 Opcode: 7
63888500: global: CGRA: NOOP.Execute()
63888500: global: Distance is: 0
63888500: system.cpu: Ins: 6306136064, 177e00000 @ PE 11
63888500: global: Predictor bit: 0	 Opcode: 7
63888500: global: CGRA: NOOP.Execute()
63888500: global: Distance is: 0
63888500: system.cpu: Ins: 6306136064, 177e00000 @ PE 12
63888500: global: Predictor bit: 0	 Opcode: 7
63888500: global: CGRA: NOOP.Execute()
63888500: global: Distance is: 0
63888500: system.cpu: Ins: 6306136064, 177e00000 @ PE 13
63888500: global: Predictor bit: 0	 Opcode: 7
63888500: global: CGRA: NOOP.Execute()
63888500: global: Distance is: 0
63888500: system.cpu: Ins: 6306136064, 177e00000 @ PE 14
63888500: global: Predictor bit: 0	 Opcode: 7
63888500: global: CGRA: NOOP.Execute()
63888500: global: Distance is: 0
63888500: system.cpu: Ins: 6306136064, 177e00000 @ PE 15
63888500: global: Predictor bit: 0	 Opcode: 7
63888500: global: CGRA: NOOP.Execute()
63888500: global: Distance is: 0

************* MEM READ *************
Row: 0 - address: 632392 - data: 15
63888500: system.cpu: CGRA advanceTime complete.
63888500: system.cpu: *******IN ADVANCE PC******
63888500: system.cpu: build/ARM/cpu/atomiccgra/atomiccgra.cc,CGRA_advancePC,1759,PC:a65e8
63888500: system.cpu: Passed Complete Drain().
63888500: system.cpu: Make latency status=1.
63888500: system.cpu: Inside status idle.
63888500: system.cpu: Exiting schedule events
63888500: system.cpu: We are here after Execution
63889000: system.cpu: Inside CGRA Execution else statement.
63889000: system.cpu: Inside CGRA_Execution block.
63889000: system.cpu: 
CALL IN NOW CGRA_Execution.
63889000: system.cpu: 

 ~~~~~~ CGRA_Execution @ numCycles = 31 ~~~~~~~
63889000: system.cpu: Ins: 6306136064, 177e00000 @ PE 0
63889000: global: Predictor bit: 0	 Opcode: 7
63889000: global: CGRA: NOOP.Execute()
63889000: global: Distance is: 0
63889000: system.cpu: Ins: 6306136064, 177e00000 @ PE 1
63889000: global: Predictor bit: 0	 Opcode: 7
63889000: global: CGRA: NOOP.Execute()
63889000: global: Distance is: 0
63889000: system.cpu: Ins: 6306136064, 177e00000 @ PE 2
63889000: global: Predictor bit: 0	 Opcode: 7
63889000: global: CGRA: NOOP.Execute()
63889000: global: Distance is: 0
63889000: system.cpu: Ins: 6306136064, 177e00000 @ PE 3
63889000: global: Predictor bit: 0	 Opcode: 7
63889000: global: CGRA: NOOP.Execute()
63889000: global: Distance is: 0
63889000: system.cpu: Ins: 6306136064, 177e00000 @ PE 4
63889000: global: Predictor bit: 0	 Opcode: 7
63889000: global: CGRA: NOOP.Execute()
63889000: global: Distance is: 0
63889000: system.cpu: Ins: 6306136064, 177e00000 @ PE 5
63889000: global: Predictor bit: 0	 Opcode: 7
63889000: global: CGRA: NOOP.Execute()
63889000: global: Distance is: 0
63889000: system.cpu: Ins: 6306136064, 177e00000 @ PE 6
63889000: global: Predictor bit: 0	 Opcode: 7
63889000: global: CGRA: NOOP.Execute()
63889000: global: Distance is: 0
63889000: system.cpu: Ins: 6306136064, 177e00000 @ PE 7
63889000: global: Predictor bit: 0	 Opcode: 7
63889000: global: CGRA: NOOP.Execute()
63889000: global: Distance is: 0
63889000: system.cpu: Ins: 6306136064, 177e00000 @ PE 8
63889000: global: Predictor bit: 0	 Opcode: 7
63889000: global: CGRA: NOOP.Execute()
63889000: global: Distance is: 0
63889000: system.cpu: Ins: 6306136064, 177e00000 @ PE 9
63889000: global: Predictor bit: 0	 Opcode: 7
63889000: global: CGRA: NOOP.Execute()
63889000: global: Distance is: 0
63889000: system.cpu: Ins: 6306136064, 177e00000 @ PE 10
63889000: global: Predictor bit: 0	 Opcode: 7
63889000: global: CGRA: NOOP.Execute()
63889000: global: Distance is: 0
63889000: system.cpu: Ins: 6306136064, 177e00000 @ PE 11
63889000: global: Predictor bit: 0	 Opcode: 7
63889000: global: CGRA: NOOP.Execute()
63889000: global: Distance is: 0
63889000: system.cpu: Ins: 6306136064, 177e00000 @ PE 12
63889000: global: Predictor bit: 0	 Opcode: 7
63889000: global: CGRA: NOOP.Execute()
63889000: global: Distance is: 0
63889000: system.cpu: Ins: 6306136064, 177e00000 @ PE 13
63889000: global: Predictor bit: 0	 Opcode: 7
63889000: global: CGRA: NOOP.Execute()
63889000: global: Distance is: 0
63889000: system.cpu: Ins: 6306136064, 177e00000 @ PE 14
63889000: global: Predictor bit: 0	 Opcode: 7
63889000: global: CGRA: NOOP.Execute()
63889000: global: Distance is: 0
63889000: system.cpu: Ins: 6306136064, 177e00000 @ PE 15
63889000: global: Predictor bit: 0	 Opcode: 7
63889000: global: CGRA: NOOP.Execute()
63889000: global: Distance is: 0

************* MEM READ *************
Row: 0 - address: 632392 - data: 15
63889000: system.cpu: CGRA advanceTime complete.
63889000: system.cpu: *******IN ADVANCE PC******
63889000: system.cpu: build/ARM/cpu/atomiccgra/atomiccgra.cc,CGRA_advancePC,1759,PC:a6668
63889000: system.cpu: Passed Complete Drain().
63889000: system.cpu: Make latency status=1.
63889000: system.cpu: Inside status idle.
63889000: system.cpu: Exiting schedule events
63889000: system.cpu: We are here after Execution
63889500: system.cpu: Inside CGRA Execution else statement.
63889500: system.cpu: Inside CGRA_Execution block.
63889500: system.cpu: 
CALL IN NOW CGRA_Execution.
63889500: system.cpu: 

 ~~~~~~ CGRA_Execution @ numCycles = 33 ~~~~~~~
63889500: system.cpu: Ins: 6306136064, 177e00000 @ PE 0
63889500: global: Predictor bit: 0	 Opcode: 7
63889500: global: CGRA: NOOP.Execute()
63889500: global: Distance is: 0
63889500: system.cpu: Ins: 6306136064, 177e00000 @ PE 1
63889500: global: Predictor bit: 0	 Opcode: 7
63889500: global: CGRA: NOOP.Execute()
63889500: global: Distance is: 0
63889500: system.cpu: Ins: 6306136064, 177e00000 @ PE 2
63889500: global: Predictor bit: 0	 Opcode: 7
63889500: global: CGRA: NOOP.Execute()
63889500: global: Distance is: 0
63889500: system.cpu: Ins: 6306136064, 177e00000 @ PE 3
63889500: global: Predictor bit: 0	 Opcode: 7
63889500: global: CGRA: NOOP.Execute()
63889500: global: Distance is: 0
63889500: system.cpu: Ins: 6306136064, 177e00000 @ PE 4
63889500: global: Predictor bit: 0	 Opcode: 7
63889500: global: CGRA: NOOP.Execute()
63889500: global: Distance is: 0
63889500: system.cpu: Ins: 6306136064, 177e00000 @ PE 5
63889500: global: Predictor bit: 0	 Opcode: 7
63889500: global: CGRA: NOOP.Execute()
63889500: global: Distance is: 0
63889500: system.cpu: Ins: 6306136064, 177e00000 @ PE 6
63889500: global: Predictor bit: 0	 Opcode: 7
63889500: global: CGRA: NOOP.Execute()
63889500: global: Distance is: 0
63889500: system.cpu: Ins: 6306136064, 177e00000 @ PE 7
63889500: global: Predictor bit: 0	 Opcode: 7
63889500: global: CGRA: NOOP.Execute()
63889500: global: Distance is: 0
63889500: system.cpu: Ins: 6306136064, 177e00000 @ PE 8
63889500: global: Predictor bit: 0	 Opcode: 7
63889500: global: CGRA: NOOP.Execute()
63889500: global: Distance is: 0
63889500: system.cpu: Ins: 6306136064, 177e00000 @ PE 9
63889500: global: Predictor bit: 0	 Opcode: 7
63889500: global: CGRA: NOOP.Execute()
63889500: global: Distance is: 0
63889500: system.cpu: Ins: 6306136064, 177e00000 @ PE 10
63889500: global: Predictor bit: 0	 Opcode: 7
63889500: global: CGRA: NOOP.Execute()
63889500: global: Distance is: 0
63889500: system.cpu: Ins: 6306136064, 177e00000 @ PE 11
63889500: global: Predictor bit: 0	 Opcode: 7
63889500: global: CGRA: NOOP.Execute()
63889500: global: Distance is: 0
63889500: system.cpu: Ins: 6306136064, 177e00000 @ PE 12
63889500: global: Predictor bit: 0	 Opcode: 7
63889500: global: CGRA: NOOP.Execute()
63889500: global: Distance is: 0
63889500: system.cpu: Ins: 6306136064, 177e00000 @ PE 13
63889500: global: Predictor bit: 0	 Opcode: 7
63889500: global: CGRA: NOOP.Execute()
63889500: global: Distance is: 0
63889500: system.cpu: Ins: 6306136064, 177e00000 @ PE 14
63889500: global: Predictor bit: 0	 Opcode: 7
63889500: global: CGRA: NOOP.Execute()
63889500: global: Distance is: 0
63889500: system.cpu: Ins: 6306136064, 177e00000 @ PE 15
63889500: global: Predictor bit: 0	 Opcode: 7
63889500: global: CGRA: NOOP.Execute()
63889500: global: Distance is: 0

************* MEM READ *************
Row: 0 - address: 632392 - data: 15
63889500: system.cpu: CGRA advanceTime complete.
63889500: system.cpu: *******IN ADVANCE PC******
63889500: system.cpu: build/ARM/cpu/atomiccgra/atomiccgra.cc,CGRA_advancePC,1759,PC:a66e8
63889500: system.cpu: Passed Complete Drain().
63889500: system.cpu: Make latency status=1.
63889500: system.cpu: Inside status idle.
63889500: system.cpu: Exiting schedule events
63889500: system.cpu: We are here after Execution
63890000: system.cpu: Inside CGRA Execution else statement.
63890000: system.cpu: Inside CGRA_Execution block.
63890000: system.cpu: 
CALL IN NOW CGRA_Execution.
63890000: system.cpu: 

 ~~~~~~ CGRA_Execution @ numCycles = 35 ~~~~~~~
63890000: system.cpu: Ins: 6306136064, 177e00000 @ PE 0
63890000: global: Predictor bit: 0	 Opcode: 7
63890000: global: CGRA: NOOP.Execute()
63890000: global: Distance is: 0
63890000: system.cpu: Ins: 6306136064, 177e00000 @ PE 1
63890000: global: Predictor bit: 0	 Opcode: 7
63890000: global: CGRA: NOOP.Execute()
63890000: global: Distance is: 0
63890000: system.cpu: Ins: 6306136064, 177e00000 @ PE 2
63890000: global: Predictor bit: 0	 Opcode: 7
63890000: global: CGRA: NOOP.Execute()
63890000: global: Distance is: 0
63890000: system.cpu: Ins: 6306136064, 177e00000 @ PE 3
63890000: global: Predictor bit: 0	 Opcode: 7
63890000: global: CGRA: NOOP.Execute()
63890000: global: Distance is: 0
63890000: system.cpu: Ins: 6306136064, 177e00000 @ PE 4
63890000: global: Predictor bit: 0	 Opcode: 7
63890000: global: CGRA: NOOP.Execute()
63890000: global: Distance is: 0
63890000: system.cpu: Ins: 6306136064, 177e00000 @ PE 5
63890000: global: Predictor bit: 0	 Opcode: 7
63890000: global: CGRA: NOOP.Execute()
63890000: global: Distance is: 0
63890000: system.cpu: Ins: 6306136064, 177e00000 @ PE 6
63890000: global: Predictor bit: 0	 Opcode: 7
63890000: global: CGRA: NOOP.Execute()
63890000: global: Distance is: 0
63890000: system.cpu: Ins: 6306136064, 177e00000 @ PE 7
63890000: global: Predictor bit: 0	 Opcode: 7
63890000: global: CGRA: NOOP.Execute()
63890000: global: Distance is: 0
63890000: system.cpu: Ins: 6306136064, 177e00000 @ PE 8
63890000: global: Predictor bit: 0	 Opcode: 7
63890000: global: CGRA: NOOP.Execute()
63890000: global: Distance is: 0
63890000: system.cpu: Ins: 6306136064, 177e00000 @ PE 9
63890000: global: Predictor bit: 0	 Opcode: 7
63890000: global: CGRA: NOOP.Execute()
63890000: global: Distance is: 0
63890000: system.cpu: Ins: 6306136064, 177e00000 @ PE 10
63890000: global: Predictor bit: 0	 Opcode: 7
63890000: global: CGRA: NOOP.Execute()
63890000: global: Distance is: 0
63890000: system.cpu: Ins: 6306136064, 177e00000 @ PE 11
63890000: global: Predictor bit: 0	 Opcode: 7
63890000: global: CGRA: NOOP.Execute()
63890000: global: Distance is: 0
63890000: system.cpu: Ins: 6306136064, 177e00000 @ PE 12
63890000: global: Predictor bit: 0	 Opcode: 7
63890000: global: CGRA: NOOP.Execute()
63890000: global: Distance is: 0
63890000: system.cpu: Ins: 6306136064, 177e00000 @ PE 13
63890000: global: Predictor bit: 0	 Opcode: 7
63890000: global: CGRA: NOOP.Execute()
63890000: global: Distance is: 0
63890000: system.cpu: Ins: 6306136064, 177e00000 @ PE 14
63890000: global: Predictor bit: 0	 Opcode: 7
63890000: global: CGRA: NOOP.Execute()
63890000: global: Distance is: 0
63890000: system.cpu: Ins: 6306136064, 177e00000 @ PE 15
63890000: global: Predictor bit: 0	 Opcode: 7
63890000: global: CGRA: NOOP.Execute()
63890000: global: Distance is: 0

************* MEM READ *************
Row: 0 - address: 632392 - data: 15
63890000: system.cpu: CGRA advanceTime complete.
63890000: system.cpu: *******IN ADVANCE PC******
63890000: system.cpu: build/ARM/cpu/atomiccgra/atomiccgra.cc,CGRA_advancePC,1759,PC:a6768
63890000: system.cpu: Passed Complete Drain().
63890000: system.cpu: Make latency status=1.
63890000: system.cpu: Inside status idle.
63890000: system.cpu: Exiting schedule events
63890000: system.cpu: We are here after Execution
63890500: system.cpu: Inside CGRA Execution else statement.
63890500: system.cpu: Inside CGRA_Execution block.
63890500: system.cpu: 
[...]
63904500: global: Predictor bit: 0	 Opcode: 7
63904500: global: CGRA: NOOP.Execute()
63904500: global: Distance is: 0
63904500: system.cpu: Ins: 6306136064, 177e00000 @ PE 15
63904500: global: Predictor bit: 0	 Opcode: 7
63904500: global: CGRA: NOOP.Execute()
63904500: global: Distance is: 0

************* MEM READ *************
Row: 0 - address: 632392 - data: 15
63904500: system.cpu: CGRA advanceTime complete.
63904500: system.cpu: *******IN ADVANCE PC******
63904500: system.cpu: build/ARM/cpu/atomiccgra/atomiccgra.cc,CGRA_advancePC,1759,PC:a69f0
63904500: system.cpu: Passed Complete Drain().
63904500: system.cpu: Make latency status=1.
63904500: system.cpu: Inside status idle.
63904500: system.cpu: Exiting schedule events
63904500: system.cpu: We are here after Execution
63905000: system.cpu: Inside CGRA Execution else statement.
63905000: system.cpu: Inside CGRA_Execution block.
63905000: system.cpu: 
CALL IN NOW CGRA_Execution.
63905000: system.cpu: 

 ~~~~~~ CGRA_Execution @ numCycles = 95 ~~~~~~~
63905000: global: 
******** DB INPUT2 ReadAddress = 3************
63905000: system.cpu: Ins: 4726980608, 119c00000 @ PE 0
63905000: global: Predictor bit: 1	 Opcode: 1
63905000: global: 
Input1 = 15	Input2 = 0
63905000: global: 
******** LDI IN THIS PE 15************
63905000: global: Distance is: 0
63905000: system.cpu: Ins: 4743757824, 11ac00000 @ PE 1
63905000: global: Predictor bit: 1	 Opcode: 1
63905000: global: 
Input1 = 32768	Input2 = 0
63905000: global: 
******** LDI IN THIS PE 32768************
63905000: global: Distance is: 0
63905000: system.cpu: Ins: 7550140416, 1c2060000 @ PE 2
63905000: global: Predictor bit: 0	 Opcode: 12
63905000: global: 
Input1 = 15	Input2 = 15
63905000: global: 
******** EQUALS IN THIS PE 1************
63905000: global: Controller_Reg reset
63905000: global: Distance is: 0
63905000: system.cpu: Ins: 6306136064, 177e00000 @ PE 3
63905000: global: Predictor bit: 0	 Opcode: 7
63905000: global: CGRA: NOOP.Execute()
63905000: global: Distance is: 0
63905000: system.cpu: Ins: 6306136064, 177e00000 @ PE 4
63905000: global: Predictor bit: 0	 Opcode: 7
63905000: global: CGRA: NOOP.Execute()
63905000: global: Distance is: 0
63905000: system.cpu: Ins: 6306136064, 177e00000 @ PE 5
63905000: global: Predictor bit: 0	 Opcode: 7
63905000: global: CGRA: NOOP.Execute()
63905000: global: Distance is: 0
63905000: system.cpu: Ins: 6306136064, 177e00000 @ PE 6
63905000: global: Predictor bit: 0	 Opcode: 7
63905000: global: CGRA: NOOP.Execute()
63905000: global: Distance is: 0
63905000: system.cpu: Ins: 6306136064, 177e00000 @ PE 7
63905000: global: Predictor bit: 0	 Opcode: 7
63905000: global: CGRA: NOOP.Execute()
63905000: global: Distance is: 0
63905000: system.cpu: Ins: 6306136064, 177e00000 @ PE 8
63905000: global: Predictor bit: 0	 Opcode: 7
63905000: global: CGRA: NOOP.Execute()
63905000: global: Distance is: 0
63905000: system.cpu: Ins: 6306136064, 177e00000 @ PE 9
63905000: global: Predictor bit: 0	 Opcode: 7
63905000: global: CGRA: NOOP.Execute()
63905000: global: Distance is: 0
63905000: system.cpu: Ins: 6306136064, 177e00000 @ PE 10
63905000: global: Predictor bit: 0	 Opcode: 7
63905000: global: CGRA: NOOP.Execute()
63905000: global: Distance is: 0
63905000: system.cpu: Ins: 6306136064, 177e00000 @ PE 11
63905000: global: Predictor bit: 0	 Opcode: 7
63905000: global: CGRA: NOOP.Execute()
63905000: global: Distance is: 0
63905000: system.cpu: Ins: 6306136064, 177e00000 @ PE 12
63905000: global: Predictor bit: 0	 Opcode: 7
63905000: global: CGRA: NOOP.Execute()
63905000: global: Distance is: 0
63905000: system.cpu: Ins: 6306136064, 177e00000 @ PE 13
63905000: global: Predictor bit: 0	 Opcode: 7
63905000: global: CGRA: NOOP.Execute()
63905000: global: Distance is: 0
63905000: system.cpu: Ins: 6306136064, 177e00000 @ PE 14
63905000: global: Predictor bit: 0	 Opcode: 7
63905000: global: CGRA: NOOP.Execute()
63905000: global: Distance is: 0
63905000: system.cpu: Ins: 6306136064, 177e00000 @ PE 15
63905000: global: Predictor bit: 0	 Opcode: 7
63905000: global: CGRA: NOOP.Execute()
63905000: global: Distance is: 0

************* MEM READ *************
Row: 0 - address: 632392 - data: 15
63905000: system.cpu: CGRA advanceTime complete.
63905000: system.cpu: *******IN ADVANCE PC******
63905000: system.cpu: build/ARM/cpu/atomiccgra/atomiccgra.cc,CGRA_advancePC,1759,PC:a6a70
63905000: system.cpu: State = KERNEL, Cond_Reg = 0
63905000: system.cpu: 
KERNEL->EPILOG
63905000: system.cpu: Passed Complete Drain().
63905000: system.cpu: Make latency status=1.
63905000: system.cpu: Inside status idle.
63905000: system.cpu: Exiting schedule events
63905000: system.cpu: We are here after Execution
63905500: system.cpu: Inside CGRA Execution else statement.
63905500: system.cpu: Inside CGRA_Execution block.
63905500: system.cpu: 
CALL IN NOW CGRA_Execution.
63905500: system.cpu: 

 ~~~~~~ CGRA_Execution @ numCycles = 97 ~~~~~~~
63905500: system.cpu: Ins: 6306136064, 177e00000 @ PE 0
63905500: global: Predictor bit: 0	 Opcode: 7
63905500: global: CGRA: NOOP.Execute()
63905500: global: Distance is: 0
63905500: system.cpu: Ins: 6306136064, 177e00000 @ PE 1
63905500: global: Predictor bit: 0	 Opcode: 7
63905500: global: CGRA: NOOP.Execute()
63905500: global: Distance is: 0
63905500: system.cpu: Ins: 6471827457, 181c04001 @ PE 2
63905500: global: Predictor bit: 0	 Opcode: 8
63905500: global: 
Input1 = 32768	Input2 = 1
63905500: global: 
******** ASL IN THIS PE 65536************
63905500: global: 
WRITE: REG NUMBER: 0 dist: 0
63905500: global: R0: 65536	R1: 0	R2: 0	R3: 15
63905500: global: 
WRITE: FPREG NUMBER: 0 dist: 0
63905500: global: FPR0: 65536	FPR1: 0	FPR2: 0	FPR3: 15
63905500: global: Writing output 65536 to register 0
63905500: global: Distance is: 0
63905500: system.cpu: Ins: 4341104641, 102c00001 @ PE 3
63905500: global: Predictor bit: 0	 Opcode: 0
63905500: global: 
Input1 = 15	Input2 = 1
63905500: global: 
******** SUM IN THIS PE 16************
63905500: global: Distance is: 0
63905500: system.cpu: Ins: 6306136064, 177e00000 @ PE 4
63905500: global: Predictor bit: 0	 Opcode: 7
63905500: global: CGRA: NOOP.Execute()
63905500: global: Distance is: 0
63905500: system.cpu: Ins: 6306136064, 177e00000 @ PE 5
63905500: global: Predictor bit: 0	 Opcode: 7
63905500: global: CGRA: NOOP.Execute()
63905500: global: Distance is: 0
63905500: system.cpu: Ins: 6306136064, 177e00000 @ PE 6
63905500: global: Predictor bit: 0	 Opcode: 7
63905500: global: CGRA: NOOP.Execute()
63905500: global: Distance is: 0
63905500: system.cpu: Ins: 6306136064, 177e00000 @ PE 7
63905500: global: Predictor bit: 0	 Opcode: 7
63905500: global: CGRA: NOOP.Execute()
63905500: global: Distance is: 0
63905500: system.cpu: Ins: 6306136064, 177e00000 @ PE 8
63905500: global: Predictor bit: 0	 Opcode: 7
63905500: global: CGRA: NOOP.Execute()
63905500: global: Distance is: 0
63905500: system.cpu: Ins: 6306136064, 177e00000 @ PE 9
63905500: global: Predictor bit: 0	 Opcode: 7
63905500: global: CGRA: NOOP.Execute()
63905500: global: Distance is: 0
63905500: system.cpu: Ins: 6306136064, 177e00000 @ PE 10
63905500: global: Predictor bit: 0	 Opcode: 7
63905500: global: CGRA: NOOP.Execute()
63905500: global: Distance is: 0
63905500: system.cpu: Ins: 6306136064, 177e00000 @ PE 11
63905500: global: Predictor bit: 0	 Opcode: 7
63905500: global: CGRA: NOOP.Execute()
63905500: global: Distance is: 0
63905500: system.cpu: Ins: 6306136064, 177e00000 @ PE 12
63905500: global: Predictor bit: 0	 Opcode: 7
63905500: global: CGRA: NOOP.Execute()
63905500: global: Distance is: 0
63905500: system.cpu: Ins: 6306136064, 177e00000 @ PE 13
63905500: global: Predictor bit: 0	 Opcode: 7
63905500: global: CGRA: NOOP.Execute()
63905500: global: Distance is: 0
63905500: system.cpu: Ins: 6306136064, 177e00000 @ PE 14
63905500: global: Predictor bit: 0	 Opcode: 7
63905500: global: CGRA: NOOP.Execute()
63905500: global: Distance is: 0
63905500: system.cpu: Ins: 6306136064, 177e00000 @ PE 15
63905500: global: Predictor bit: 0	 Opcode: 7
63905500: global: CGRA: NOOP.Execute()
63905500: global: Distance is: 0

************* MEM READ *************
Row: 0 - address: 632392 - data: 15
63905500: system.cpu: CGRA advanceTime complete.
63905500: system.cpu: *******IN ADVANCE PC******
63905500: system.cpu: build/ARM/cpu/atomiccgra/atomiccgra.cc,CGRA_advancePC,1759,PC:a5ce0
63905500: system.cpu: Passed Complete Drain().
63905500: system.cpu: Make latency status=1.
63905500: system.cpu: Inside status idle.
63905500: system.cpu: Exiting schedule events
63905500: system.cpu: We are here after Execution
63906000: system.cpu: Inside CGRA Execution else statement.
63906000: system.cpu: Inside CGRA_Execution block.
63906000: system.cpu: 
CALL IN NOW CGRA_Execution.
63906000: system.cpu: 

 ~~~~~~ CGRA_Execution @ numCycles = 99 ~~~~~~~
63906000: global: 
******** DB INPUT2 ReadAddress = 3************
63906000: system.cpu: Ins: 6306136064, 177e00000 @ PE 0
63906000: global: Predictor bit: 0	 Opcode: 7
63906000: global: CGRA: NOOP.Execute()
63906000: global: Distance is: 0
63906000: system.cpu: Ins: 6306136064, 177e00000 @ PE 1
63906000: global: Predictor bit: 0	 Opcode: 7
63906000: global: CGRA: NOOP.Execute()
63906000: global: Distance is: 0
63906000: system.cpu: Ins: 7550140416, 1c2060000 @ PE 2
63906000: global: Predictor bit: 0	 Opcode: 12
63906000: global: 
Input1 = 16	Input2 = 15
63906000: global: 
******** EQUALS IN THIS PE 0************
63906000: global: Distance is: 0
63906000: system.cpu: Ins: 6306136064, 177e00000 @ PE 3
63906000: global: Predictor bit: 0	 Opcode: 7
63906000: global: CGRA: NOOP.Execute()
63906000: global: Distance is: 0
63906000: system.cpu: Ins: 6306136064, 177e00000 @ PE 4
63906000: global: Predictor bit: 0	 Opcode: 7
63906000: global: CGRA: NOOP.Execute()
63906000: global: Distance is: 0
63906000: system.cpu: Ins: 6306136064, 177e00000 @ PE 5
63906000: global: Predictor bit: 0	 Opcode: 7
63906000: global: CGRA: NOOP.Execute()
63906000: global: Distance is: 0
63906000: system.cpu: Ins: 6306136064, 177e00000 @ PE 6
63906000: global: Predictor bit: 0	 Opcode: 7
63906000: global: CGRA: NOOP.Execute()
63906000: global: Distance is: 0
63906000: system.cpu: Ins: 6306136064, 177e00000 @ PE 7
63906000: global: Predictor bit: 0	 Opcode: 7
63906000: global: CGRA: NOOP.Execute()
63906000: global: Distance is: 0
63906000: system.cpu: Ins: 6306136064, 177e00000 @ PE 8
63906000: global: Predictor bit: 0	 Opcode: 7
63906000: global: CGRA: NOOP.Execute()
63906000: global: Distance is: 0
63906000: system.cpu: Ins: 6306136064, 177e00000 @ PE 9
63906000: global: Predictor bit: 0	 Opcode: 7
63906000: global: CGRA: NOOP.Execute()
63906000: global: Distance is: 0
63906000: system.cpu: Ins: 6306136064, 177e00000 @ PE 10
63906000: global: Predictor bit: 0	 Opcode: 7
63906000: global: CGRA: NOOP.Execute()
63906000: global: Distance is: 0
63906000: system.cpu: Ins: 6306136064, 177e00000 @ PE 11
63906000: global: Predictor bit: 0	 Opcode: 7
63906000: global: CGRA: NOOP.Execute()
63906000: global: Distance is: 0
63906000: system.cpu: Ins: 6306136064, 177e00000 @ PE 12
63906000: global: Predictor bit: 0	 Opcode: 7
63906000: global: CGRA: NOOP.Execute()
63906000: global: Distance is: 0
63906000: system.cpu: Ins: 6306136064, 177e00000 @ PE 13
63906000: global: Predictor bit: 0	 Opcode: 7
63906000: global: CGRA: NOOP.Execute()
63906000: global: Distance is: 0
63906000: system.cpu: Ins: 6306136064, 177e00000 @ PE 14
63906000: global: Predictor bit: 0	 Opcode: 7
63906000: global: CGRA: NOOP.Execute()
63906000: global: Distance is: 0
63906000: system.cpu: Ins: 6306136064, 177e00000 @ PE 15
63906000: global: Predictor bit: 0	 Opcode: 7
63906000: global: CGRA: NOOP.Execute()
63906000: global: Distance is: 0

************* MEM READ *************
Row: 0 - address: 632392 - data: 15
63906000: system.cpu: CGRA advanceTime complete.
63906000: system.cpu: *******IN ADVANCE PC******
63906000: system.cpu: build/ARM/cpu/atomiccgra/atomiccgra.cc,CGRA_advancePC,1759,PC:a5d60
63906000: system.cpu: Passed Complete Drain().
63906000: system.cpu: Make latency status=1.
63906000: system.cpu: Inside status idle.
63906000: system.cpu: Exiting schedule events
63906000: system.cpu: We are here after Execution
63906500: system.cpu: Inside CGRA Execution else statement.
63906500: system.cpu: Inside CGRA_Execution block.
63906500: system.cpu: 
CALL IN NOW CGRA_Execution.
63906500: system.cpu: 

 ~~~~~~ CGRA_Execution @ numCycles = 101 ~~~~~~~
63906500: global: 
******** DB INPUT1 ReadAddress = 0************
63906500: global: 
******** DB INPUT1 ReadAddress = 0************
63906500: system.cpu: Ins: 6052388868, 168c02004 @ PE 0
63906500: global: Predictor bit: 1	 Opcode: 6
63906500: global: 
Input1 = 632404	Input2 = 4
63906500: global: 
******** ADDRESS GENERATED IN THIS PE 632404************
63906500: global: 
*********Setting Address 9a654 ******
63906500: global: Distance is: 0
63906500: system.cpu: Ins: 6306136064, 177e00000 @ PE 1
63906500: global: Predictor bit: 0	 Opcode: 7
63906500: global: CGRA: NOOP.Execute()
63906500: global: Distance is: 0
63906500: system.cpu: Ins: 4307554304, 100c01000 @ PE 2
63906500: global: Predictor bit: 0	 Opcode: 0
63906500: global: 
Input1 = 65536	Input2 = 0
63906500: global: 
******** SUM IN THIS PE 65536************
63906500: global: 
******** DB Output 65536************
63906500: global: Distance is: 0
63906500: system.cpu: Ins: 6306136064, 177e00000 @ PE 3
63906500: global: Predictor bit: 0	 Opcode: 7
63906500: global: CGRA: NOOP.Execute()
63906500: global: Distance is: 0
63906500: system.cpu: Ins: 6306136064, 177e00000 @ PE 4
63906500: global: Predictor bit: 0	 Opcode: 7
63906500: global: CGRA: NOOP.Execute()
63906500: global: Distance is: 0
63906500: system.cpu: Ins: 6306136064, 177e00000 @ PE 5
63906500: global: Predictor bit: 0	 Opcode: 7
63906500: global: CGRA: NOOP.Execute()
63906500: global: Distance is: 0
63906500: system.cpu: Ins: 6306136064, 177e00000 @ PE 6
63906500: global: Predictor bit: 0	 Opcode: 7
63906500: global: CGRA: NOOP.Execute()
63906500: global: Distance is: 0
63906500: system.cpu: Ins: 6306136064, 177e00000 @ PE 7
63906500: global: Predictor bit: 0	 Opcode: 7
63906500: global: CGRA: NOOP.Execute()
63906500: global: Distance is: 0
63906500: system.cpu: Ins: 6306136064, 177e00000 @ PE 8
63906500: global: Predictor bit: 0	 Opcode: 7
63906500: global: CGRA: NOOP.Execute()
63906500: global: Distance is: 0
63906500: system.cpu: Ins: 6306136064, 177e00000 @ PE 9
63906500: global: Predictor bit: 0	 Opcode: 7
63906500: global: CGRA: NOOP.Execute()
63906500: global: Distance is: 0
63906500: system.cpu: Ins: 6306136064, 177e00000 @ PE 10
63906500: global: Predictor bit: 0	 Opcode: 7
63906500: global: CGRA: NOOP.Execute()
63906500: global: Distance is: 0
63906500: system.cpu: Ins: 6306136064, 177e00000 @ PE 11
63906500: global: Predictor bit: 0	 Opcode: 7
63906500: global: CGRA: NOOP.Execute()
63906500: global: Distance is: 0
63906500: system.cpu: Ins: 6306136064, 177e00000 @ PE 12
63906500: global: Predictor bit: 0	 Opcode: 7
63906500: global: CGRA: NOOP.Execute()
63906500: global: Distance is: 0
63906500: system.cpu: Ins: 6306136064, 177e00000 @ PE 13
63906500: global: Predictor bit: 0	 Opcode: 7
63906500: global: CGRA: NOOP.Execute()
63906500: global: Distance is: 0
63906500: system.cpu: Ins: 6306136064, 177e00000 @ PE 14
63906500: global: Predictor bit: 0	 Opcode: 7
63906500: global: CGRA: NOOP.Execute()
63906500: global: Distance is: 0
63906500: system.cpu: Ins: 6306136064, 177e00000 @ PE 15
63906500: global: Predictor bit: 0	 Opcode: 7
63906500: global: CGRA: NOOP.Execute()
63906500: global: Distance is: 0
63906500: system.cpu: In Memwrite with membus: 1
63906500: system.cpu: In writing INT 65536	 to address:9a654	 -- &Data: 0x559ce5e1e620	 and uint: 
63906500: system.cpu: CGRA advanceTime complete.
63906500: system.cpu: *******IN ADVANCE PC******
63906500: system.cpu: build/ARM/cpu/atomiccgra/atomiccgra.cc,CGRA_advancePC,1759,PC:a5de0
63906500: system.cpu: Passed Complete Drain().
63906500: system.cpu: Make latency status=1.
63906500: system.cpu: Inside status idle.
63906500: system.cpu: Exiting schedule events
63906500: system.cpu: We are here after Execution
63907000: system.cpu: Inside CGRA Execution else statement.
63907000: system.cpu: Inside CGRA_Execution block.
63907000: system.cpu: 
CALL IN NOW CGRA_Execution.
63907000: system.cpu: 

 ~~~~~~ CGRA_Execution @ numCycles = 103 ~~~~~~~
63907000: system.cpu: Ins: 6306136064, 177e00000 @ PE 0
63907000: global: Predictor bit: 0	 Opcode: 7
63907000: global: CGRA: NOOP.Execute()
63907000: global: Distance is: 0
63907000: system.cpu: Ins: 6306136064, 177e00000 @ PE 1
63907000: global: Predictor bit: 0	 Opcode: 7
63907000: global: CGRA: NOOP.Execute()
63907000: global: Distance is: 0
63907000: system.cpu: Ins: 6306136064, 177e00000 @ PE 2
63907000: global: Predictor bit: 0	 Opcode: 7
63907000: global: CGRA: NOOP.Execute()
63907000: global: Distance is: 0
63907000: system.cpu: Ins: 6306136064, 177e00000 @ PE 3
63907000: global: Predictor bit: 0	 Opcode: 7
63907000: global: CGRA: NOOP.Execute()
63907000: global: Distance is: 0
63907000: system.cpu: Ins: 6306136064, 177e00000 @ PE 4
63907000: global: Predictor bit: 0	 Opcode: 7
63907000: global: CGRA: NOOP.Execute()
63907000: global: Distance is: 0
63907000: system.cpu: Ins: 6306136064, 177e00000 @ PE 5
63907000: global: Predictor bit: 0	 Opcode: 7
63907000: global: CGRA: NOOP.Execute()
63907000: global: Distance is: 0
63907000: system.cpu: Ins: 6306136064, 177e00000 @ PE 6
63907000: global: Predictor bit: 0	 Opcode: 7
63907000: global: CGRA: NOOP.Execute()
63907000: global: Distance is: 0
63907000: system.cpu: Ins: 6306136064, 177e00000 @ PE 7
63907000: global: Predictor bit: 0	 Opcode: 7
63907000: global: CGRA: NOOP.Execute()
63907000: global: Distance is: 0
63907000: system.cpu: Ins: 6306136064, 177e00000 @ PE 8
63907000: global: Predictor bit: 0	 Opcode: 7
63907000: global: CGRA: NOOP.Execute()
63907000: global: Distance is: 0
63907000: system.cpu: Ins: 6306136064, 177e00000 @ PE 9
63907000: global: Predictor bit: 0	 Opcode: 7
63907000: global: CGRA: NOOP.Execute()
63907000: global: Distance is: 0
63907000: system.cpu: Ins: 6306136064, 177e00000 @ PE 10
63907000: global: Predictor bit: 0	 Opcode: 7
63907000: global: CGRA: NOOP.Execute()
63907000: global: Distance is: 0
63907000: system.cpu: Ins: 6306136064, 177e00000 @ PE 11
63907000: global: Predictor bit: 0	 Opcode: 7
63907000: global: CGRA: NOOP.Execute()
63907000: global: Distance is: 0
63907000: system.cpu: Ins: 6306136064, 177e00000 @ PE 12
63907000: global: Predictor bit: 0	 Opcode: 7
63907000: global: CGRA: NOOP.Execute()
63907000: global: Distance is: 0
63907000: system.cpu: Ins: 6306136064, 177e00000 @ PE 13
63907000: global: Predictor bit: 0	 Opcode: 7
63907000: global: CGRA: NOOP.Execute()
63907000: global: Distance is: 0
63907000: system.cpu: Ins: 6306136064, 177e00000 @ PE 14
63907000: global: Predictor bit: 0	 Opcode: 7
63907000: global: CGRA: NOOP.Execute()
63907000: global: Distance is: 0
63907000: system.cpu: Ins: 6306136064, 177e00000 @ PE 15
63907000: global: Predictor bit: 0	 Opcode: 7
63907000: global: CGRA: NOOP.Execute()
63907000: global: Distance is: 0
63907000: system.cpu: In Memwrite with membus: 1
63907000: system.cpu: In writing INT 65536	 to address:9a654	 -- &Data: 0x559ce5e1e620	 and uint: 
63907000: system.cpu: CGRA advanceTime complete.
63907000: system.cpu: *******IN ADVANCE PC******
63907000: system.cpu: build/ARM/cpu/atomiccgra/atomiccgra.cc,CGRA_advancePC,1759,PC:a5e60
63907000: system.cpu: Passed Complete Drain().
63907000: system.cpu: Make latency status=1.
63907000: system.cpu: Inside status idle.
63907000: system.cpu: Exiting schedule events
63907000: system.cpu: We are here after Execution
63907500: system.cpu: Inside CGRA Execution else statement.
***** 2^16 = 65536 *****

deleting cgra
Exiting @ tick 66117000 because exiting with last active thread context
